* ##############################################################################
* ## Intel Top Secret
* ##############################################################################
* ## Copyright (C) 2011; Intel Corporation All rights reserved.
* ##
* ## This is the property of Intel Corporation and may only be utilized
* ## pursuant to a written Restricted Use Nondisclosure Agreement
* ## with Intel Corporation. It may not be used; reproduced; or
* ## disclosed to others except in accordance with the terms and
* ## conditions of such agreement.
* ##
* ## All products; processes; computer systems; dates; and figures
* ## specified are preliminary based on current expectations; and are
* ## subject to change without notice.
* ##############################################################################

* ##############################################################################
* ##	FDK VERSION				REPLACED_WITH_PDK
* ##	FDK STDCELL VERSION				stdcell736_c.0.0p3
* ##	FDK TIC VERSION				tic736_r1.4hf1
* ##	IDSLIBS VERSION				1273.6_1.6
* ##############################################################################

 

 
************************************************************************
* auCdl Netlist:
* 
* Library Name:  ip736hs3p111dtcam_f736_prd
* Top Cell Name: ip736hs3p111dtcam_512x40m1b8wd_nnnnnnl
* View Name:     schematic
* Netlisted on:  Sep 22 13:55:17 2014
************************************************************************

*.BIPOLAR
*.CAPVAL
*.DIOPERI
*.DIOAREA
*.EQUATION
*.SCALE METER
*.MEGA


*.EXPAND_ON_M_FACTOR

************************************************************************
* Library Name: ip736hs3p111dtcam_f736_prd
* Cell Name:    wwc_out_read_latch_4000
* View Name:    schematic
************************************************************************

.SUBCKT ip736hs3p111dtcam_512x40m1b8wd_nnnnnnl_wwc_out_read_latch_4000 GND L.0 L.1 R Vdd
*.PININFO GND:I L.0:I L.1:I R:I Vdd:I
MR.0 R X.0 GND GND nuv1 W=2.1E-07 L=2.8E-08 m=1
MX.0.2 X.0 L.1 GND GND nuv1 W=8.4E-08 L=2.8E-08 m=1
MX.0.3 X.0 X.1 GND GND nuv1 W=8.4E-08 L=2.8E-08 m=1
MX.1.2 X.1 L.0 GND GND nuv1 W=8.4E-08 L=2.8E-08 m=1
MX.1.3 X.1 X.0 GND GND nuv1 W=8.4E-08 L=2.8E-08 m=1
MX.0.1 X.0 X.1 X.0.1# Vdd puv1 W=1.26E-07 L=2.8E-08 m=1
MR.1 R X.0 Vdd Vdd puv1 W=2.1E-07 L=2.8E-08 m=1
MX.0.0 X.0.1# L.1 Vdd Vdd puv1 W=1.26E-07 L=2.8E-08 m=1
MX.1.0 X.1.1# L.0 Vdd Vdd puv1 W=8.4E-08 L=2.8E-08 m=1
MX.1.1 X.1 X.0 X.1.1# Vdd puv1 W=8.4E-08 L=2.8E-08 m=1
.ENDS

************************************************************************
* Library Name: ip736hs3p111dtcam_f736_prd
* Cell Name:    wwc_unstab_or2_4000
* View Name:    schematic
************************************************************************

.SUBCKT ip736hs3p111dtcam_512x40m1b8wd_nnnnnnl_wwc_unstab_or2_4000 GND Vdd a[0] a[1] x
*.PININFO GND:I Vdd:I a[0]:I a[1]:I x:I
Mb.1 b a[1] b.1# Vdd puv1 W=8.4E-08 L=2.8E-08 m=1
Mb.0 b.1# a[0] Vdd Vdd puv1 W=8.4E-08 L=2.8E-08 m=1
Mx.1 x b Vdd Vdd puv1 W=8.4E-08 L=2.8E-08 m=1
Mb.2 b a[0] GND GND nuv1 W=8.4E-08 L=2.8E-08 m=1
Mb.3 b a[1] GND GND nuv1 W=8.4E-08 L=2.8E-08 m=1
Mx.0 x b GND GND nuv1 W=8.4E-08 L=2.8E-08 m=1
.ENDS

************************************************************************
* Library Name: ip736hs3p111dtcam_f736_prd
* Cell Name:    wwc_dff_cmd_4000
* View Name:    schematic
************************************************************************

.SUBCKT ip736hs3p111dtcam_512x40m1b8wd_nnnnnnl_wwc_dff_cmd_4000 CLK GND L R.0 R.1 Vdd
*.PININFO GND:I L:I R.0:I R.1:I Vdd:I CLK:O
Mchain_0.0 chain_0.9# R.0 _R.0 GND nuv1 W=8.4E-08 L=2.8E-08 m=1
Mchain_0.1 GND CLK chain_0.9# GND nuv1 W=8.4E-08 L=2.8E-08 m=1
Mchain_1.0 chain_1.9# _L _R.0 GND nuv1 W=5.46E-07 L=2.8E-08 m=1
Mchain_1.1 N0 _R.1 chain_1.9# GND nuv1 W=5.46E-07 L=2.8E-08 m=1
Mchain_2.0 GND CLK N0 GND nuv1 W=5.46E-07 L=2.8E-08 m=1
Mchain_7.0 chain_7.9# R.1 _R.1 GND nuv1 W=1.68E-07 L=2.8E-08 m=1
Mchain_7.1 GND CLK chain_7.9# GND nuv1 W=1.68E-07 L=2.8E-08 m=1
Mchain_8.0 chain_8.9# L _R.1 GND nuv1 W=5.46E-07 L=2.8E-08 m=1
Mchain_8.1 N0 _R.0 chain_8.9# GND nuv1 W=5.46E-07 L=2.8E-08 m=1
M_L.0 _L L GND GND nuv1 W=8.4E-08 L=2.8E-08 m=1
Mchain_3.0 N1 R.0 _R.0 Vdd p W=8.4E-08 L=2.8E-08 m=1
Mchain_4.0 Vdd _L N1 Vdd p W=8.4E-08 L=2.8E-08 m=1
Mchain_5.0 Vdd _R.1 N1 Vdd p W=8.4E-08 L=2.8E-08 m=1
Mchain_6.0 Vdd CLK _R.0 Vdd p W=1.26E-07 L=2.8E-08 m=1
Mchain_9.0 N2 R.1 _R.1 Vdd p W=8.4E-08 L=2.8E-08 m=1
Mchain_10.0 Vdd L N2 Vdd p W=8.4E-08 L=2.8E-08 m=1
Mchain_11.0 Vdd _R.0 N2 Vdd p W=8.4E-08 L=2.8E-08 m=1
Mchain_12.0 Vdd CLK _R.1 Vdd p W=4.2E-07 L=2.8E-08 m=1
M_L.1 _L L Vdd Vdd puv1 W=8.4E-08 L=2.8E-08 m=1
MR.0.1 R.0 _R.0 Vdd Vdd puv1 W=8.4E-08 L=2.8E-08 m=1
MR.1.1 R.1 _R.1 Vdd Vdd puv1 W=7.14E-07 L=2.8E-08 m=1
MR.0.0 R.0 _R.0 GND GND n W=1.26E-07 L=2.8E-08 m=1
MR.1.0 R.1 _R.1 GND GND n W=3.78E-07 L=2.8E-08 m=1
Mgnac.0 GND GND L GND n W=8.4E-08 L=2.8E-08 m=1
.ENDS

************************************************************************
* Library Name: ip736hs3p111dtcam_f736_prd
* Cell Name:    wwc_reset_sr_latch_4000
* View Name:    schematic
************************************************************************

.SUBCKT ip736hs3p111dtcam_512x40m1b8wd_nnnnnnl_wwc_reset_sr_latch_4000 GND L.0 L.1 R Vdd _RESET
*.PININFO GND:I L.0:I L.1:I R:I Vdd:I _RESET:I
MR.0 R X.0 GND GND nuv1 W=1.26E-07 L=2.8E-08 m=1
MReset.0 Reset _RESET GND GND nuv1 W=1.26E-07 L=2.8E-08 m=1
MX.0.2 X.0 L.1 GND GND nuv1 W=1.68E-07 L=2.8E-08 m=1
MX.0.3 X.0 X.1 GND GND nuv1 W=1.68E-07 L=2.8E-08 m=1
MX.1.3 X.1 Reset GND GND nuv1 W=8.4E-08 L=2.8E-08 m=1
MX.1.4 X.1 L.0 GND GND nuv1 W=8.4E-08 L=2.8E-08 m=1
MX.1.5 X.1 X.0 GND GND nuv1 W=8.4E-08 L=2.8E-08 m=1
MX.0.1 X.0 X.1 X.0.1# Vdd puv1 W=1.26E-07 L=2.8E-08 m=1
MR.1 R X.0 Vdd Vdd puv1 W=2.1E-07 L=2.8E-08 m=1
MReset.1 Reset _RESET Vdd Vdd puv1 W=1.26E-07 L=2.8E-08 m=1
MX.0.0 X.0.1# L.1 Vdd Vdd puv1 W=1.26E-07 L=2.8E-08 m=1
MX.1.0 X.1.1# Reset Vdd Vdd puv1 W=2.1E-07 L=2.8E-08 m=1
MX.1.1 X.1.2# L.0 X.1.1# Vdd puv1 W=2.1E-07 L=2.8E-08 m=1
MX.1.2 X.1 X.0 X.1.2# Vdd puv1 W=2.1E-07 L=2.8E-08 m=1
.ENDS

************************************************************************
* Library Name: ip736hs3p111dtcam_f736_prd
* Cell Name:    wwc_tall_or2_4001
* View Name:    schematic
************************************************************************

.SUBCKT ip736hs3p111dtcam_512x40m1b8wd_nnnnnnl_wwc_tall_or2_4001 GND Vdd a[0] a[1] x
*.PININFO GND:I Vdd:I a[0]:I a[1]:I x:I
Mb.1 b a[1] b.1# Vdd p W=1.68E-07 L=2.8E-08 m=1
Mb.0 b.1# a[0] Vdd Vdd p W=1.68E-07 L=2.8E-08 m=1
Mb.2 b a[0] GND GND nuv1 W=1.68E-07 L=2.8E-08 m=1
Mb.3 b a[1] GND GND nuv1 W=1.68E-07 L=2.8E-08 m=1
Mx.0 x b GND GND n W=1.008E-06 L=2.8E-08 m=1
Mx.1 x b Vdd Vdd puv1 W=1.008E-06 L=2.8E-08 m=1
.ENDS

************************************************************************
* Library Name: ip736hs3p111dtcam_f736_prd
* Cell Name:    wwc_tall_invinv_4004
* View Name:    schematic
************************************************************************

.SUBCKT ip736hs3p111dtcam_512x40m1b8wd_nnnnnnl_wwc_tall_invinv_4004 GND Vdd a x
*.PININFO GND:I Vdd:I a:I x:I
Mb.0 b a GND GND nuv1 W=7.56E-07 L=2.8E-08 m=1
Mb.1 b a Vdd Vdd p W=4.2E-07 L=2.8E-08 m=1
Mx.0 x b GND GND n W=1.596E-06 L=2.8E-08 m=1
Mx.1 x b Vdd Vdd puv1 W=2.688E-06 L=2.8E-08 m=1
.ENDS

************************************************************************
* Library Name: ip736hs3p111dtcam_f736_prd
* Cell Name:    wwc_tall_invinv_4040
* View Name:    schematic
************************************************************************

.SUBCKT ip736hs3p111dtcam_512x40m1b8wd_nnnnnnl_wwc_tall_invinv_4040 GND Vdd a x
*.PININFO GND:I Vdd:I a:I x:I
Mb.0 b a GND GND nuv1 W=4.62E-07 L=2.8E-08 m=1
Mb.1 b a Vdd Vdd p W=4.62E-07 L=2.8E-08 m=1
Mx.0 x b GND GND n W=1.428E-06 L=2.8E-08 m=1
Mx.1 x b Vdd Vdd puv1 W=1.68E-06 L=2.8E-08 m=1
.ENDS

************************************************************************
* Library Name: ip736hs3p111dtcam_f736_prd
* Cell Name:    wwc_and2_4002
* View Name:    schematic
************************************************************************

.SUBCKT ip736hs3p111dtcam_512x40m1b8wd_nnnnnnl_wwc_and2_4002 GND Vdd a[0] a[1] x
*.PININFO GND:I Vdd:I a[0]:I a[1]:I x:I
Mb.1 b a[1] b.1# GND n W=4.62E-07 L=2.8E-08 m=1
Mb.0 b.1# a[0] GND GND n W=4.62E-07 L=2.8E-08 m=1
Mb.2 b a[0] Vdd Vdd puv1 W=2.1E-07 L=2.8E-08 m=1
Mb.3 b a[1] Vdd Vdd puv1 W=2.1E-07 L=2.8E-08 m=1
Mx.0 x b GND GND nuv1 W=8.4E-07 L=2.8E-08 m=1
Mx.1 x b Vdd Vdd p W=1.428E-06 L=2.8E-08 m=1
.ENDS

************************************************************************
* Library Name: ip736hs3p111dtcam_f736_prd
* Cell Name:    wwc_dff_addr_4000
* View Name:    schematic
************************************************************************

.SUBCKT ip736hs3p111dtcam_512x40m1b8wd_nnnnnnl_wwc_dff_addr_4000 CLK GND L R.0 R.1 Vdd
*.PININFO GND:I L:I R.0:I R.1:I Vdd:I CLK:O
Mchain_0.0 chain_0.9# R.0 _R.0 GND nuv1 W=8.4E-08 L=2.8E-08 m=1
Mchain_0.1 GND CLK chain_0.9# GND nuv1 W=8.4E-08 L=2.8E-08 m=1
Mchain_1.0 chain_1.9# _L _R.0 GND nuv1 W=3.36E-07 L=2.8E-08 m=1
Mchain_1.1 N0 _R.1 chain_1.9# GND nuv1 W=3.36E-07 L=2.8E-08 m=1
Mchain_2.0 GND CLK N0 GND nuv1 W=3.36E-07 L=2.8E-08 m=1
Mchain_7.0 chain_7.9# R.1 _R.1 GND nuv1 W=8.4E-08 L=2.8E-08 m=1
Mchain_7.1 GND CLK chain_7.9# GND nuv1 W=8.4E-08 L=2.8E-08 m=1
Mchain_8.0 chain_8.9# L _R.1 GND nuv1 W=3.36E-07 L=2.8E-08 m=1
Mchain_8.1 N0 _R.0 chain_8.9# GND nuv1 W=3.36E-07 L=2.8E-08 m=1
M_L.0 _L L GND GND nuv1 W=8.4E-08 L=2.8E-08 m=1
Mchain_3.0 N1 R.0 _R.0 Vdd p W=8.4E-08 L=2.8E-08 m=1
Mchain_4.0 Vdd _L N1 Vdd p W=8.4E-08 L=2.8E-08 m=1
Mchain_5.0 Vdd _R.1 N1 Vdd p W=8.4E-08 L=2.8E-08 m=1
Mchain_6.0 Vdd CLK _R.0 Vdd p W=2.1E-07 L=2.8E-08 m=1
Mchain_9.0 N2 R.1 _R.1 Vdd p W=8.4E-08 L=2.8E-08 m=1
Mchain_10.0 Vdd L N2 Vdd p W=8.4E-08 L=2.8E-08 m=1
Mchain_11.0 Vdd _R.0 N2 Vdd p W=8.4E-08 L=2.8E-08 m=1
Mchain_12.0 Vdd CLK _R.1 Vdd p W=2.1E-07 L=2.8E-08 m=1
M_L.1 _L L Vdd Vdd puv1 W=8.4E-08 L=2.8E-08 m=1
MR.0.1 R.0 _R.0 Vdd Vdd puv1 W=4.2E-07 L=2.8E-08 m=1
MR.1.1 R.1 _R.1 Vdd Vdd puv1 W=4.2E-07 L=2.8E-08 m=1
MR.0.0 R.0 _R.0 GND GND n W=2.1E-07 L=2.8E-08 m=1
MR.1.0 R.1 _R.1 GND GND n W=2.1E-07 L=2.8E-08 m=1
Mgnac.0 GND GND L GND n W=8.4E-08 L=2.8E-08 m=1
.ENDS

************************************************************************
* Library Name: ip736hs3p111dtcam_f736_prd
* Cell Name:    wwc_dff_addr_2_4000
* View Name:    schematic
************************************************************************

.SUBCKT ip736hs3p111dtcam_512x40m1b8wd_nnnnnnl_wwc_dff_addr_2_4000 A.0 A.1 A.2 A.3 ADDR[0] ADDR[1] GND RW Vdd
*.PININFO A.0:I A.1:I A.2:I A.3:I ADDR[1]:I GND:I RW:I Vdd:I ADDR[0]:O
Xand[0] GND Vdd a[0].0 a[1].0 A.0 / ip736hs3p111dtcam_512x40m1b8wd_nnnnnnl_wwc_and2_4002
Xand[1] GND Vdd a[0].1 a[1].0 A.1 / ip736hs3p111dtcam_512x40m1b8wd_nnnnnnl_wwc_and2_4002
Xand[2] GND Vdd a[0].0 a[1].1 A.2 / ip736hs3p111dtcam_512x40m1b8wd_nnnnnnl_wwc_and2_4002
Xand[3] GND Vdd a[0].1 a[1].1 A.3 / ip736hs3p111dtcam_512x40m1b8wd_nnnnnnl_wwc_and2_4002
Xbit[0] RW GND ADDR[0] a[0].0 a[0].1 Vdd / ip736hs3p111dtcam_512x40m1b8wd_nnnnnnl_wwc_dff_addr_4000
Xbit[1] RW GND ADDR[1] a[1].0 a[1].1 Vdd / ip736hs3p111dtcam_512x40m1b8wd_nnnnnnl_wwc_dff_addr_4000
.ENDS

************************************************************************
* Library Name: ip736hs3p111dtcam_f736_prd
* Cell Name:    wwc_gnac_4000
* View Name:    schematic
************************************************************************

.SUBCKT ip736hs3p111dtcam_512x40m1b8wd_nnnnnnl_wwc_gnac_4000 GND X
*.PININFO GND:I X:I
Mgnac.0 GND GND X GND n W=8.4E-08 L=2.8E-08 m=1
.ENDS

************************************************************************
* Library Name: ip736hs3p111dtcam_f736_prd
* Cell Name:    wwc_tall_invinv_4020
* View Name:    schematic
************************************************************************

.SUBCKT ip736hs3p111dtcam_512x40m1b8wd_nnnnnnl_wwc_tall_invinv_4020 GND Vdd a x
*.PININFO GND:I Vdd:I a:I x:I
Mb.0 b a GND GND nuv1 W=2.52E-07 L=2.8E-08 m=1
Mb.1 b a Vdd Vdd p W=1.68E-07 L=2.8E-08 m=1
Mx.0 x b GND GND n W=5.46E-07 L=2.8E-08 m=1
Mx.1 x b Vdd Vdd puv1 W=8.82E-07 L=2.8E-08 m=1
.ENDS

************************************************************************
* Library Name: ip736hs3p111dtcam_f736_prd
* Cell Name:    wwc_tcam_ctrl_4000
* View Name:    schematic
************************************************************************

.SUBCKT ip736hs3p111dtcam_512x40m1b8wd_nnnnnnl_wwc_tcam_ctrl_4000 ADDR2[0].0 ADDR2[0].1 ADDR2[0].2 ADDR2[0].3 
+ ADDR2[1].0 ADDR2[1].1 ADDR2[1].2 ADDR2[1].3 ADDR2[2].0 ADDR2[2].1 ADDR2[2].2 
+ ADDR2[2].3 ADDR2[3].0 ADDR2[3].1 ADDR2[3].2 ADDR2[3].3 ADDR2[4].0 ADDR2[4].1 
+ ADDR2[4].2 ADDR2[4].3 ADDR[0] ADDR[1] ADDR[2] ADDR[3] ADDR[4] ADDR[5] 
+ ADDR[6] ADDR[7] ADDR[8] ADDR[9] AR AW CLK GND KEN LK[0] LK[1] LW[0] LW[1] 
+ REN RESET_N Vdd WEN _RESET
*.PININFO ADDR2[0].0:I ADDR2[0].1:I ADDR2[0].2:I ADDR2[0].3:I ADDR2[1].0:I 
*.PININFO ADDR2[1].1:I ADDR2[1].2:I ADDR2[1].3:I ADDR2[2].0:I ADDR2[2].1:I 
*.PININFO ADDR2[2].2:I ADDR2[2].3:I ADDR2[3].0:I ADDR2[3].1:I ADDR2[3].2:I 
*.PININFO ADDR2[3].3:I ADDR2[4].0:I ADDR2[4].1:I ADDR2[4].2:I ADDR2[4].3:I 
*.PININFO ADDR[1]:I ADDR[2]:I ADDR[3]:I ADDR[4]:I ADDR[5]:I ADDR[6]:I 
*.PININFO ADDR[7]:I ADDR[8]:I ADDR[9]:I AR:I AW:I CLK:I GND:I KEN:I LK[0]:I 
*.PININFO LK[1]:I LW[0]:I LW[1]:I REN:I RESET_N:I Vdd:I WEN:I _RESET:I 
*.PININFO ADDR[0]:O
Xor_lw GND Vdd WEN KEN lw0 / ip736hs3p111dtcam_512x40m1b8wd_nnnnnnl_wwc_unstab_or2_4000
Xdff_ren CLK GND REN ren.0 ren.1 Vdd / ip736hs3p111dtcam_512x40m1b8wd_nnnnnnl_wwc_dff_cmd_4000
Xdff_wen CLK GND WEN wen.0 wen.1 Vdd / ip736hs3p111dtcam_512x40m1b8wd_nnnnnnl_wwc_dff_cmd_4000
Xdff_ken CLK GND KEN ken.0 ken.1 Vdd / ip736hs3p111dtcam_512x40m1b8wd_nnnnnnl_wwc_dff_cmd_4000
Xdff_lw CLK GND lw0 lw.0 lw.1 Vdd / ip736hs3p111dtcam_512x40m1b8wd_nnnnnnl_wwc_dff_cmd_4000
Xlatch_ar GND ren.0 ren.1 xar Vdd _RESET / ip736hs3p111dtcam_512x40m1b8wd_nnnnnnl_wwc_reset_sr_latch_4000
Xlatch_aw GND wen.0 wen.1 xaw Vdd _RESET / ip736hs3p111dtcam_512x40m1b8wd_nnnnnnl_wwc_reset_sr_latch_4000
Xor_rw GND Vdd xar xaw rw / ip736hs3p111dtcam_512x40m1b8wd_nnnnnnl_wwc_tall_or2_4001
Xramp_LW[0] GND Vdd lw.1 LW[0] / ip736hs3p111dtcam_512x40m1b8wd_nnnnnnl_wwc_tall_invinv_4004
Xramp_LW[1] GND Vdd lw.1 LW[1] / ip736hs3p111dtcam_512x40m1b8wd_nnnnnnl_wwc_tall_invinv_4004
Xramp_LK[0] GND Vdd ken.1 LK[0] / ip736hs3p111dtcam_512x40m1b8wd_nnnnnnl_wwc_tall_invinv_4040
Xramp_LK[1] GND Vdd ken.1 LK[1] / ip736hs3p111dtcam_512x40m1b8wd_nnnnnnl_wwc_tall_invinv_4040
Xdff_a[0] ADDR2[0].0 ADDR2[0].1 ADDR2[0].2 ADDR2[0].3 ADDR[0] ADDR[1] GND rw 
+ Vdd / ip736hs3p111dtcam_512x40m1b8wd_nnnnnnl_wwc_dff_addr_2_4000
Xdff_a[1] ADDR2[1].0 ADDR2[1].1 ADDR2[1].2 ADDR2[1].3 ADDR[2] ADDR[3] GND rw 
+ Vdd / ip736hs3p111dtcam_512x40m1b8wd_nnnnnnl_wwc_dff_addr_2_4000
Xdff_a[2] ADDR2[2].0 ADDR2[2].1 ADDR2[2].2 ADDR2[2].3 ADDR[4] ADDR[5] GND rw 
+ Vdd / ip736hs3p111dtcam_512x40m1b8wd_nnnnnnl_wwc_dff_addr_2_4000
Xdff_a[3] ADDR2[3].0 ADDR2[3].1 ADDR2[3].2 ADDR2[3].3 ADDR[6] ADDR[7] GND rw 
+ Vdd / ip736hs3p111dtcam_512x40m1b8wd_nnnnnnl_wwc_dff_addr_2_4000
Xdff_a[4] ADDR2[4].0 ADDR2[4].1 ADDR2[4].2 ADDR2[4].3 ADDR[8] ADDR[9] GND rw 
+ Vdd / ip736hs3p111dtcam_512x40m1b8wd_nnnnnnl_wwc_dff_addr_2_4000
Xgnac_RESET_N GND RESET_N / ip736hs3p111dtcam_512x40m1b8wd_nnnnnnl_wwc_gnac_4000
Xgnac_CLK GND CLK / ip736hs3p111dtcam_512x40m1b8wd_nnnnnnl_wwc_gnac_4000
Xreset GND Vdd RESET_N _RESET / ip736hs3p111dtcam_512x40m1b8wd_nnnnnnl_wwc_tall_invinv_4020
Xramp_AR GND Vdd xar AR / ip736hs3p111dtcam_512x40m1b8wd_nnnnnnl_wwc_tall_invinv_4020
Xramp_AW GND Vdd xaw AW / ip736hs3p111dtcam_512x40m1b8wd_nnnnnnl_wwc_tall_invinv_4020
.ENDS

************************************************************************
* Library Name: ip736hs3p111dtcam_f736_prd
* Cell Name:    wwc_dff_data_core_4000
* View Name:    schematic
************************************************************************

.SUBCKT ip736hs3p111dtcam_512x40m1b8wd_nnnnnnl_wwc_dff_data_core_4000 D GND LW M Vdd W.0 W.1
*.PININFO GND:I LW:I M:I Vdd:I W.0:I W.1:I D:O
Mchain_0.0 chain_0.9# W.0 _W.0 GND nuv1 W=8.4E-08 L=2.8E-08 m=1
Mchain_0.1 GND LW chain_0.9# GND nuv1 W=8.4E-08 L=2.8E-08 m=1
Mchain_1.0 chain_1.9# _D _W.0 GND nuv1 W=5.04E-07 L=2.8E-08 m=1
Mchain_1.1 N0 _W.1 chain_1.9# GND nuv1 W=5.04E-07 L=2.8E-08 m=1
Mchain_2.0 chain_2.9# M N0 GND nuv1 W=5.04E-07 L=2.8E-08 m=1
Mchain_2.1 N1 _W.2 chain_2.9# GND nuv1 W=5.04E-07 L=2.8E-08 m=1
Mchain_3.0 GND LW N1 GND nuv1 W=5.04E-07 L=2.8E-08 m=1
Mchain_10.0 chain_10.9# W.1 _W.1 GND nuv1 W=8.4E-08 L=2.8E-08 m=1
Mchain_10.1 GND LW chain_10.9# GND nuv1 W=8.4E-08 L=2.8E-08 m=1
Mchain_11.0 chain_11.9# D _W.1 GND nuv1 W=5.04E-07 L=2.8E-08 m=1
Mchain_11.1 N0 _W.0 chain_11.9# GND nuv1 W=5.04E-07 L=2.8E-08 m=1
Mchain_18.0 chain_18.9# _W.2_inverse _W.2 GND nuv1 W=4.2E-08 L=2.8E-08 m=1
Mchain_18.1 GND LW chain_18.9# GND nuv1 W=4.2E-08 L=2.8E-08 m=1
Mchain_19.0 chain_19.9# _M _W.2 GND nuv1 W=4.2E-07 L=2.8E-08 m=1
Mchain_19.1 chain_19.1# _W.1 chain_19.9# GND nuv1 W=4.2E-07 L=2.8E-08 m=1
Mchain_19.2 N1 _W.0 chain_19.1# GND nuv1 W=4.2E-07 L=2.8E-08 m=1
M_D.0 _D D GND GND nuv1 W=8.4E-08 L=2.8E-08 m=1
M_M.0 _M M GND GND nuv1 W=8.4E-08 L=2.8E-08 m=1
M_W.2_inverse.0 _W.2_inverse _W.2 GND GND nuv1 W=8.4E-08 L=2.8E-08 m=1
Mchain_4.0 N2 W.0 _W.0 Vdd p W=8.4E-08 L=2.8E-08 m=1
Mchain_5.0 Vdd M N2 Vdd p W=8.4E-08 L=2.8E-08 m=1
Mchain_6.0 Vdd _D N2 Vdd p W=8.4E-08 L=2.8E-08 m=1
Mchain_7.0 Vdd _W.1 N2 Vdd p W=8.4E-08 L=2.8E-08 m=1
Mchain_8.0 Vdd _W.2 N2 Vdd p W=8.4E-08 L=2.8E-08 m=1
Mchain_9.0 Vdd LW _W.0 Vdd p W=2.52E-07 L=2.8E-08 m=1
Mchain_12.0 N3 W.1 _W.1 Vdd p W=8.4E-08 L=2.8E-08 m=1
Mchain_13.0 Vdd D N3 Vdd p W=8.4E-08 L=2.8E-08 m=1
Mchain_14.0 Vdd M N3 Vdd p W=8.4E-08 L=2.8E-08 m=1
Mchain_15.0 Vdd _W.0 N3 Vdd p W=8.4E-08 L=2.8E-08 m=1
Mchain_16.0 Vdd _W.2 N3 Vdd p W=8.4E-08 L=2.8E-08 m=1
Mchain_17.0 Vdd LW _W.1 Vdd p W=2.52E-07 L=2.8E-08 m=1
Mchain_20.0 N4 _W.2_inverse _W.2 Vdd p W=8.4E-08 L=2.8E-08 m=1
Mchain_21.0 Vdd _M N4 Vdd p W=8.4E-08 L=2.8E-08 m=1
Mchain_22.0 Vdd _W.0 N4 Vdd p W=8.4E-08 L=2.8E-08 m=1
Mchain_23.0 Vdd _W.1 N4 Vdd p W=8.4E-08 L=2.8E-08 m=1
Mchain_24.0 Vdd LW _W.2 Vdd p W=8.4E-08 L=2.8E-08 m=1
M_D.1 _D D Vdd Vdd puv1 W=8.4E-08 L=2.8E-08 m=1
M_M.1 _M M Vdd Vdd puv1 W=8.4E-08 L=2.8E-08 m=1
MW.0.1 W.0 _W.0 Vdd Vdd puv1 W=4.62E-07 L=2.8E-08 m=1
MW.1.1 W.1 _W.1 Vdd Vdd puv1 W=4.62E-07 L=2.8E-08 m=1
M_W.2_inverse.1 _W.2_inverse _W.2 Vdd Vdd puv1 W=8.4E-08 L=2.8E-08 m=1
MW.0.0 W.0 _W.0 GND GND n W=2.1E-07 L=2.8E-08 m=1
MW.1.0 W.1 _W.1 GND GND n W=2.1E-07 L=2.8E-08 m=1
.ENDS

************************************************************************
* Library Name: ip736hs3p111dtcam_f736_prd
* Cell Name:    wwc_invinv_4000
* View Name:    schematic
************************************************************************

.SUBCKT ip736hs3p111dtcam_512x40m1b8wd_nnnnnnl_wwc_invinv_4000 GND Vdd a x
*.PININFO GND:I Vdd:I a:I x:I
Mb.0 b a GND GND nuv1 W=4.2E-07 L=2.8E-08 m=1
Mb.1 b a Vdd Vdd p W=2.1E-07 L=2.8E-08 m=1
Mx.0 x b GND GND n W=5.88E-07 L=2.8E-08 m=1
Mx.1 x b Vdd Vdd puv1 W=1.302E-06 L=2.8E-08 m=1
.ENDS

************************************************************************
* Library Name: ip736hs3p111dtcam_f736_prd
* Cell Name:    wwc_dff_data_4000
* View Name:    schematic
************************************************************************

.SUBCKT ip736hs3p111dtcam_512x40m1b8wd_nnnnnnl_wwc_dff_data_4000 D GND LW M Vdd W[0].0 W[0].1 W[1].0 W[1].1
*.PININFO GND:I LW:I M:I Vdd:I W[0].0:I W[0].1:I W[1].0:I W[1].1:I D:O
Xgnac_D GND D / ip736hs3p111dtcam_512x40m1b8wd_nnnnnnl_wwc_gnac_4000
Xgnac_M GND M / ip736hs3p111dtcam_512x40m1b8wd_nnnnnnl_wwc_gnac_4000
Xcore D GND LW M Vdd rampW[0][0].a rampW[0][1].a / ip736hs3p111dtcam_512x40m1b8wd_nnnnnnl_wwc_dff_data_core_4000
XrampW[0][0] GND Vdd rampW[0][0].a W[0].0 / ip736hs3p111dtcam_512x40m1b8wd_nnnnnnl_wwc_invinv_4000
XrampW[0][1] GND Vdd rampW[0][1].a W[0].1 / ip736hs3p111dtcam_512x40m1b8wd_nnnnnnl_wwc_invinv_4000
XrampW[1][0] GND Vdd rampW[0][0].a W[1].0 / ip736hs3p111dtcam_512x40m1b8wd_nnnnnnl_wwc_invinv_4000
XrampW[1][1] GND Vdd rampW[0][1].a W[1].1 / ip736hs3p111dtcam_512x40m1b8wd_nnnnnnl_wwc_invinv_4000
.ENDS

************************************************************************
* Library Name: ip736hs3p111dtcam_f736_prd
* Cell Name:    wwc_tcam_inputs_40_4000
* View Name:    schematic
************************************************************************

.SUBCKT ip736hs3p111dtcam_512x40m1b8wd_nnnnnnl_wwc_tcam_inputs_40_4000 ADDR2[0].0 ADDR2[0].1 ADDR2[0].2 ADDR2[0].3 
+ ADDR2[1].0 ADDR2[1].1 ADDR2[1].2 ADDR2[1].3 ADDR2[2].0 ADDR2[2].1 ADDR2[2].2 
+ ADDR2[2].3 ADDR2[3].0 ADDR2[3].1 ADDR2[3].2 ADDR2[3].3 ADDR2[4].0 ADDR2[4].1 
+ ADDR2[4].2 ADDR2[4].3 ADDR[0] ADDR[1] ADDR[2] ADDR[3] ADDR[4] ADDR[5] 
+ ADDR[6] ADDR[7] ADDR[8] ADDR[9] AR AW CLK DATA[0] DATA[1] DATA[2] DATA[3] 
+ DATA[4] DATA[5] DATA[6] DATA[7] DATA[8] DATA[9] DATA[10] DATA[11] DATA[12] 
+ DATA[13] DATA[14] DATA[15] DATA[16] DATA[17] DATA[18] DATA[19] DATA[20] 
+ DATA[21] DATA[22] DATA[23] DATA[24] DATA[25] DATA[26] DATA[27] DATA[28] 
+ DATA[29] DATA[30] DATA[31] DATA[32] DATA[33] DATA[34] DATA[35] DATA[36] 
+ DATA[37] DATA[38] DATA[39] GND KEN LK[0] LK[1] MASK[0] MASK[1] MASK[2] 
+ MASK[3] MASK[4] MASK[5] MASK[6] MASK[7] MASK[8] MASK[9] MASK[10] MASK[11] 
+ MASK[12] MASK[13] MASK[14] MASK[15] MASK[16] MASK[17] MASK[18] MASK[19] 
+ MASK[20] MASK[21] MASK[22] MASK[23] MASK[24] MASK[25] MASK[26] MASK[27] 
+ MASK[28] MASK[29] MASK[30] MASK[31] MASK[32] MASK[33] MASK[34] MASK[35] 
+ MASK[36] MASK[37] MASK[38] MASK[39] REN RESET_N Vdd WEN W[0][0].0 W[0][0].1 
+ W[0][1].0 W[0][1].1 W[0][2].0 W[0][2].1 W[0][3].0 W[0][3].1 W[0][4].0 
+ W[0][4].1 W[0][5].0 W[0][5].1 W[0][6].0 W[0][6].1 W[0][7].0 W[0][7].1 
+ W[0][8].0 W[0][8].1 W[0][9].0 W[0][9].1 W[0][10].0 W[0][10].1 W[0][11].0 
+ W[0][11].1 W[0][12].0 W[0][12].1 W[0][13].0 W[0][13].1 W[0][14].0 W[0][14].1 
+ W[0][15].0 W[0][15].1 W[0][16].0 W[0][16].1 W[0][17].0 W[0][17].1 W[0][18].0 
+ W[0][18].1 W[0][19].0 W[0][19].1 W[0][20].0 W[0][20].1 W[0][21].0 W[0][21].1 
+ W[0][22].0 W[0][22].1 W[0][23].0 W[0][23].1 W[0][24].0 W[0][24].1 W[0][25].0 
+ W[0][25].1 W[0][26].0 W[0][26].1 W[0][27].0 W[0][27].1 W[0][28].0 W[0][28].1 
+ W[0][29].0 W[0][29].1 W[0][30].0 W[0][30].1 W[0][31].0 W[0][31].1 W[0][32].0 
+ W[0][32].1 W[0][33].0 W[0][33].1 W[0][34].0 W[0][34].1 W[0][35].0 W[0][35].1 
+ W[0][36].0 W[0][36].1 W[0][37].0 W[0][37].1 W[0][38].0 W[0][38].1 W[0][39].0 
+ W[0][39].1 W[1][0].0 W[1][0].1 W[1][1].0 W[1][1].1 W[1][2].0 W[1][2].1 
+ W[1][3].0 W[1][3].1 W[1][4].0 W[1][4].1 W[1][5].0 W[1][5].1 W[1][6].0 
+ W[1][6].1 W[1][7].0 W[1][7].1 W[1][8].0 W[1][8].1 W[1][9].0 W[1][9].1 
+ W[1][10].0 W[1][10].1 W[1][11].0 W[1][11].1 W[1][12].0 W[1][12].1 W[1][13].0 
+ W[1][13].1 W[1][14].0 W[1][14].1 W[1][15].0 W[1][15].1 W[1][16].0 W[1][16].1 
+ W[1][17].0 W[1][17].1 W[1][18].0 W[1][18].1 W[1][19].0 W[1][19].1 W[1][20].0 
+ W[1][20].1 W[1][21].0 W[1][21].1 W[1][22].0 W[1][22].1 W[1][23].0 W[1][23].1 
+ W[1][24].0 W[1][24].1 W[1][25].0 W[1][25].1 W[1][26].0 W[1][26].1 W[1][27].0 
+ W[1][27].1 W[1][28].0 W[1][28].1 W[1][29].0 W[1][29].1 W[1][30].0 W[1][30].1 
+ W[1][31].0 W[1][31].1 W[1][32].0 W[1][32].1 W[1][33].0 W[1][33].1 W[1][34].0 
+ W[1][34].1 W[1][35].0 W[1][35].1 W[1][36].0 W[1][36].1 W[1][37].0 W[1][37].1 
+ W[1][38].0 W[1][38].1 W[1][39].0 W[1][39].1 _RESET
*.PININFO ADDR2[0].0:I ADDR2[0].1:I ADDR2[0].2:I ADDR2[0].3:I ADDR2[1].0:I 
*.PININFO ADDR2[1].1:I ADDR2[1].2:I ADDR2[1].3:I ADDR2[2].0:I ADDR2[2].1:I 
*.PININFO ADDR2[2].2:I ADDR2[2].3:I ADDR2[3].0:I ADDR2[3].1:I ADDR2[3].2:I 
*.PININFO ADDR2[3].3:I ADDR2[4].0:I ADDR2[4].1:I ADDR2[4].2:I ADDR2[4].3:I 
*.PININFO ADDR[1]:I ADDR[2]:I ADDR[3]:I ADDR[4]:I ADDR[5]:I ADDR[6]:I 
*.PININFO ADDR[7]:I ADDR[8]:I ADDR[9]:I AR:I AW:I CLK:I DATA[0]:I DATA[1]:I 
*.PININFO DATA[2]:I DATA[3]:I DATA[4]:I DATA[5]:I DATA[6]:I DATA[7]:I 
*.PININFO DATA[8]:I DATA[9]:I DATA[10]:I DATA[11]:I DATA[12]:I DATA[13]:I 
*.PININFO DATA[14]:I DATA[15]:I DATA[16]:I DATA[17]:I DATA[18]:I DATA[19]:I 
*.PININFO DATA[20]:I DATA[21]:I DATA[22]:I DATA[23]:I DATA[24]:I DATA[25]:I 
*.PININFO DATA[26]:I DATA[27]:I DATA[28]:I DATA[29]:I DATA[30]:I DATA[31]:I 
*.PININFO DATA[32]:I DATA[33]:I DATA[34]:I DATA[35]:I DATA[36]:I DATA[37]:I 
*.PININFO DATA[38]:I DATA[39]:I GND:I KEN:I LK[0]:I LK[1]:I MASK[0]:I 
*.PININFO MASK[1]:I MASK[2]:I MASK[3]:I MASK[4]:I MASK[5]:I MASK[6]:I 
*.PININFO MASK[7]:I MASK[8]:I MASK[9]:I MASK[10]:I MASK[11]:I MASK[12]:I 
*.PININFO MASK[13]:I MASK[14]:I MASK[15]:I MASK[16]:I MASK[17]:I MASK[18]:I 
*.PININFO MASK[19]:I MASK[20]:I MASK[21]:I MASK[22]:I MASK[23]:I MASK[24]:I 
*.PININFO MASK[25]:I MASK[26]:I MASK[27]:I MASK[28]:I MASK[29]:I MASK[30]:I 
*.PININFO MASK[31]:I MASK[32]:I MASK[33]:I MASK[34]:I MASK[35]:I MASK[36]:I 
*.PININFO MASK[37]:I MASK[38]:I MASK[39]:I REN:I RESET_N:I Vdd:I WEN:I 
*.PININFO W[0][0].0:I W[0][0].1:I W[0][1].0:I W[0][1].1:I W[0][2].0:I 
*.PININFO W[0][2].1:I W[0][3].0:I W[0][3].1:I W[0][4].0:I W[0][4].1:I 
*.PININFO W[0][5].0:I W[0][5].1:I W[0][6].0:I W[0][6].1:I W[0][7].0:I 
*.PININFO W[0][7].1:I W[0][8].0:I W[0][8].1:I W[0][9].0:I W[0][9].1:I 
*.PININFO W[0][10].0:I W[0][10].1:I W[0][11].0:I W[0][11].1:I W[0][12].0:I 
*.PININFO W[0][12].1:I W[0][13].0:I W[0][13].1:I W[0][14].0:I W[0][14].1:I 
*.PININFO W[0][15].0:I W[0][15].1:I W[0][16].0:I W[0][16].1:I W[0][17].0:I 
*.PININFO W[0][17].1:I W[0][18].0:I W[0][18].1:I W[0][19].0:I W[0][19].1:I 
*.PININFO W[0][20].0:I W[0][20].1:I W[0][21].0:I W[0][21].1:I W[0][22].0:I 
*.PININFO W[0][22].1:I W[0][23].0:I W[0][23].1:I W[0][24].0:I W[0][24].1:I 
*.PININFO W[0][25].0:I W[0][25].1:I W[0][26].0:I W[0][26].1:I W[0][27].0:I 
*.PININFO W[0][27].1:I W[0][28].0:I W[0][28].1:I W[0][29].0:I W[0][29].1:I 
*.PININFO W[0][30].0:I W[0][30].1:I W[0][31].0:I W[0][31].1:I W[0][32].0:I 
*.PININFO W[0][32].1:I W[0][33].0:I W[0][33].1:I W[0][34].0:I W[0][34].1:I 
*.PININFO W[0][35].0:I W[0][35].1:I W[0][36].0:I W[0][36].1:I W[0][37].0:I 
*.PININFO W[0][37].1:I W[0][38].0:I W[0][38].1:I W[0][39].0:I W[0][39].1:I 
*.PININFO W[1][0].0:I W[1][0].1:I W[1][1].0:I W[1][1].1:I W[1][2].0:I 
*.PININFO W[1][2].1:I W[1][3].0:I W[1][3].1:I W[1][4].0:I W[1][4].1:I 
*.PININFO W[1][5].0:I W[1][5].1:I W[1][6].0:I W[1][6].1:I W[1][7].0:I 
*.PININFO W[1][7].1:I W[1][8].0:I W[1][8].1:I W[1][9].0:I W[1][9].1:I 
*.PININFO W[1][10].0:I W[1][10].1:I W[1][11].0:I W[1][11].1:I W[1][12].0:I 
*.PININFO W[1][12].1:I W[1][13].0:I W[1][13].1:I W[1][14].0:I W[1][14].1:I 
*.PININFO W[1][15].0:I W[1][15].1:I W[1][16].0:I W[1][16].1:I W[1][17].0:I 
*.PININFO W[1][17].1:I W[1][18].0:I W[1][18].1:I W[1][19].0:I W[1][19].1:I 
*.PININFO W[1][20].0:I W[1][20].1:I W[1][21].0:I W[1][21].1:I W[1][22].0:I 
*.PININFO W[1][22].1:I W[1][23].0:I W[1][23].1:I W[1][24].0:I W[1][24].1:I 
*.PININFO W[1][25].0:I W[1][25].1:I W[1][26].0:I W[1][26].1:I W[1][27].0:I 
*.PININFO W[1][27].1:I W[1][28].0:I W[1][28].1:I W[1][29].0:I W[1][29].1:I 
*.PININFO W[1][30].0:I W[1][30].1:I W[1][31].0:I W[1][31].1:I W[1][32].0:I 
*.PININFO W[1][32].1:I W[1][33].0:I W[1][33].1:I W[1][34].0:I W[1][34].1:I 
*.PININFO W[1][35].0:I W[1][35].1:I W[1][36].0:I W[1][36].1:I W[1][37].0:I 
*.PININFO W[1][37].1:I W[1][38].0:I W[1][38].1:I W[1][39].0:I W[1][39].1:I 
*.PININFO _RESET:I ADDR[0]:O
Xctrl ADDR2[0].0 ADDR2[0].1 ADDR2[0].2 ADDR2[0].3 ADDR2[1].0 ADDR2[1].1 
+ ADDR2[1].2 ADDR2[1].3 ADDR2[2].0 ADDR2[2].1 ADDR2[2].2 ADDR2[2].3 ADDR2[3].0 
+ ADDR2[3].1 ADDR2[3].2 ADDR2[3].3 ADDR2[4].0 ADDR2[4].1 ADDR2[4].2 ADDR2[4].3 
+ ADDR[0] ADDR[1] ADDR[2] ADDR[3] ADDR[4] ADDR[5] ADDR[6] ADDR[7] ADDR[8] 
+ ADDR[9] AR AW CLK GND KEN LK[0] LK[1] lw[0] lw[1] REN RESET_N Vdd WEN _RESET 
+ / ip736hs3p111dtcam_512x40m1b8wd_nnnnnnl_wwc_tcam_ctrl_4000
Xdata[0] DATA[0] GND lw[0] MASK[0] Vdd W[0][0].0 W[0][0].1 W[1][0].0 W[1][0].1 
+ / ip736hs3p111dtcam_512x40m1b8wd_nnnnnnl_wwc_dff_data_4000
Xdata[1] DATA[1] GND lw[0] MASK[1] Vdd W[0][1].0 W[0][1].1 W[1][1].0 W[1][1].1 
+ / ip736hs3p111dtcam_512x40m1b8wd_nnnnnnl_wwc_dff_data_4000
Xdata[2] DATA[2] GND lw[0] MASK[2] Vdd W[0][2].0 W[0][2].1 W[1][2].0 W[1][2].1 
+ / ip736hs3p111dtcam_512x40m1b8wd_nnnnnnl_wwc_dff_data_4000
Xdata[3] DATA[3] GND lw[0] MASK[3] Vdd W[0][3].0 W[0][3].1 W[1][3].0 W[1][3].1 
+ / ip736hs3p111dtcam_512x40m1b8wd_nnnnnnl_wwc_dff_data_4000
Xdata[4] DATA[4] GND lw[0] MASK[4] Vdd W[0][4].0 W[0][4].1 W[1][4].0 W[1][4].1 
+ / ip736hs3p111dtcam_512x40m1b8wd_nnnnnnl_wwc_dff_data_4000
Xdata[5] DATA[5] GND lw[0] MASK[5] Vdd W[0][5].0 W[0][5].1 W[1][5].0 W[1][5].1 
+ / ip736hs3p111dtcam_512x40m1b8wd_nnnnnnl_wwc_dff_data_4000
Xdata[6] DATA[6] GND lw[0] MASK[6] Vdd W[0][6].0 W[0][6].1 W[1][6].0 W[1][6].1 
+ / ip736hs3p111dtcam_512x40m1b8wd_nnnnnnl_wwc_dff_data_4000
Xdata[7] DATA[7] GND lw[0] MASK[7] Vdd W[0][7].0 W[0][7].1 W[1][7].0 W[1][7].1 
+ / ip736hs3p111dtcam_512x40m1b8wd_nnnnnnl_wwc_dff_data_4000
Xdata[8] DATA[8] GND lw[0] MASK[8] Vdd W[0][8].0 W[0][8].1 W[1][8].0 W[1][8].1 
+ / ip736hs3p111dtcam_512x40m1b8wd_nnnnnnl_wwc_dff_data_4000
Xdata[9] DATA[9] GND lw[0] MASK[9] Vdd W[0][9].0 W[0][9].1 W[1][9].0 W[1][9].1 
+ / ip736hs3p111dtcam_512x40m1b8wd_nnnnnnl_wwc_dff_data_4000
Xdata[10] DATA[10] GND lw[0] MASK[10] Vdd W[0][10].0 W[0][10].1 W[1][10].0 
+ W[1][10].1 / ip736hs3p111dtcam_512x40m1b8wd_nnnnnnl_wwc_dff_data_4000
Xdata[11] DATA[11] GND lw[0] MASK[11] Vdd W[0][11].0 W[0][11].1 W[1][11].0 