*
* TEST SPICE INPUT FILE FOR
* Subnet test environment generation
* Test of sneak paths between subnet driver networks.
*
*
.SUBCKT TESTCELL a b c d
MXa2s_dout[20]/M+68     GND!    Xa2s_dout[20]/_r:1      
+	Xa2s_dout[20]/58        GND! nmos_2v L=0.18U W=2.4U AD=1.296P
+	 AS=0.36P PD=3.48U PS=0.3U
MXa2s_dout[20]/M+69     odq[20]:1       Xa2s_dout[20]/_R.1:2    
+	Xa2s_dout[20]/58        GND! nmos_2v L=0.18U W=2.4U AD=0.72P
+	 AS=0.36P PD=0.6U PS=0.3U
MXa2s_dout[20]/M+70     Xa2s_dout[20]/57        Xa2s_dout[20]/_r:4
+	odq[20]:1       GND! nmos_2v L=0.18U W=2.4U AD=0.36P AS=0.72P
+	 PD=0.3U PS=0.6U
MXa2s_dout[20]/M+79     Xa2s_dout[20]/Rv:13     Xa2s_dout[20]/_R.1:14
+	Xa2s_dout[20]/72        GND! nmos_2v L=0.18U W=0.96U AD=0.432P
+	 AS=0.144P PD=2.04U PS=0.3U
MXa2s_dout[20]/M+80     Xa2s_dout[20]/72        Xa2s_dout[20]/_R.0:3
+	GND!    GND! nmos_2v L=0.18U W=0.96U AD=0.144P AS=0.518P
+	 PD=0.3U PS=2.04U
MXa2s_dout[20]/M+71     Xa2s_dout[20]/57        Xa2s_dout[20]/_R.1:5
+	GND!    GND! nmos_2v L=0.18U W=2.4U AD=0.36P AS=0.72P PD=0.3U
+	 PS=0.6U
MXa2s_dout[20]/M+64     GND!    Xa2s_dout[20]/_r:10     
+	Xa2s_dout[20]/61        GND! nmos_2v L=0.18U W=2.4U AD=0.72P
+	 AS=0.36P PD=0.6U PS=0.3U
MXa2s_dout[20]/M+65     Xa2s_dout[20]/61        Xa2s_dout[20]/_R.1:8
+	odq[20]:16      GND! nmos_2v L=0.18U W=2.4U AD=0.36P AS=0.72P
+	 PD=0.3U PS=0.6U
MXa2s_dout[20]/M+66     odq[20]:16      Xa2s_dout[20]/_r:7      
+	Xa2s_dout[20]/60        GND! nmos_2v L=0.18U W=2.4U AD=0.72P
+	 AS=0.36P PD=0.6U PS=0.3U
MXa2s_dout[20]/M+67     Xa2s_dout[20]/60        Xa2s_dout[20]/_R.1:11
+	GND!    GND! nmos_2v L=0.18U W=2.4U AD=0.36P AS=1.296P PD=0.3U
+	 PS=3.48U
MXa2s_dout[20]/M+74     Xa2s_dout[20]/_r:16     _SReset!:5205   
+	Xa2s_dout[20]/55        GND! nmos_2v L=0.18U W=4.56U AD=2.462P
+	 AS=0.684P PD=5.64U PS=0.3U
MXa2s_dout[20]/M+75     Xa2s_dout[20]/54        odq[20]:17      
+	Xa2s_dout[20]/55        GND! nmos_2v L=0.18U W=4.56U AD=0.684P
+	 AS=0.684P PD=0.3U PS=0.3U
MXa2s_dout[20]/M+76     Xa2s_dout[20]/54        Xa2s_dout[20]/_R.0:22
+	GND!    GND! nmos_2v L=0.18U W=4.56U AD=0.684P AS=2.462P
+	 PD=0.3U PS=5.64U
MXa2s_dout[20]/M+59     Xa2s_dout[20]/__Le:10   Xa2s_dout[20]/7:6
+	GND!    GND! nmos_2v L=0.48U W=0.24U AD=0.274P AS=0.274P
+	 PD=2.04U PS=2.04U
MXa2s_dout[20]/M+60     Xa2s_dout[20]/_noR:7    Xa2s_dout[20]/6:6
+	GND!    GND! nmos_2v L=0.42U W=0.24U AD=0.302P AS=0.274P
+	 PD=2.28U PS=2.04U
MXa2s_dout[20]/M+77     Xa2s_dout[20]/7:4       Xa2s_dout[20]/__Le:1
+	GND!    GND! nmos_2v L=0.18U W=0.48U AD=0.259P AS=0.259P
+	 PD=1.56U PS=1.56U
MXa2s_dout[20]/M+72     Xa2s_dout[20]/_Le:1     Xa2s_dout[20]/__Le:6
+	Xa2s_dout[20]/56        GND! nmos_2v L=0.18U W=2.82U AD=1.523P
+	 AS=0.423P PD=3.9U PS=0.3U
MXa2s_dout[20]/M+73     GND!    _SReset!:5066   Xa2s_dout[20]/56
+	GND! nmos_2v L=0.18U W=2.82U AD=1.523P AS=0.423P PD=3.9U
+	 PS=0.3U
MXa2s_dout[20]/M+78     GND!    Xa2s_dout[20]/_noR:3    
+	Xa2s_dout[20]/6:4       GND! nmos_2v L=0.18U W=0.48U AD=0.259P
+	 AS=0.259P PD=1.56U PS=1.56U
MXa2s_dout[20]/M+61     Xa2s_dout[20]/71        Xa2s_dout[20]/_noR:11
+	Xa2s_dout[20]/Rc:1      GND! nmos_2v L=0.18U W=1.86U AD=0.279P
+	 AS=1.004P PD=0.3U PS=2.94U
MXa2s_dout[20]/M+62     Xa2s_dout[20]/62        Xa2s_dout[20]/_R.0:19
+	Xa2s_dout[20]/71        GND! nmos_2v L=0.18U W=1.86U AD=0.279P
+	 AS=0.279P PD=0.3U PS=0.3U
MXa2s_dout[20]/M+63     GND!    Xa2s_dout[20]/_R.1:16   
+	Xa2s_dout[20]/62        GND! nmos_2v L=0.18U W=1.86U AD=1.004P
+	 AS=0.279P PD=2.94U PS=0.3U
MXa2s_dout[20]/M+54     Xa2s_dout[20]/53        clk:4342        
+	Xa2s_dout[20]/51:2      GND! nmos_2v L=0.18U W=1.2U AD=0.18P
+	 AS=0.518P PD=0.3U PS=2.28U
MXa2s_dout[20]/M+55     Xa2s_dout[20]/__Le:11   Xa2s_dout[20]/clk0:11
+	Xa2s_dout[20]/53        GND! nmos_2v L=0.18U W=1.2U AD=0.36P
+	 AS=0.18P PD=0.6U PS=0.3U
MXa2s_dout[20]/M+56     Xa2s_dout[20]/__Le:11   Xa2s_dout[20]/_clk0:11
+	Xa2s_dout[20]/52        GND! nmos_2v L=0.18U W=1.2U AD=0.36P
+	 AS=0.18P PD=0.6U PS=0.3U
MXa2s_dout[20]/M+57     Xa2s_dout[20]/52        Xa2s_dout[20]/_clk:7
+	Xa2s_dout[20]/51:1      GND! nmos_2v L=0.18U W=1.2U AD=0.18P
+	 AS=0.36P PD=0.3U PS=0.6U
MXa2s_dout[20]/M+58     Xa2s_dout[20]/51:1      Xa2s_dout[20]/Rv:3
+	GND!    GND! nmos_2v L=0.18U W=1.2U AD=0.36P AS=0.648P PD=0.6U
+	 PS=2.28U
MXa2s_dout[20]/M+29     GND!    Xa2s_dout[20]/8:6       
+	Xa2s_dout[20]/_R.1:41   GND! nmos_2v L=0.48U W=0.24U AD=0.274P
+	 AS=0.274P PD=2.04U PS=2.04U
MXa2s_dout[20]/M+30     Xa2s_dout[20]/Rv:9      Xa2s_dout[20]/9:6
+	GND!    GND! nmos_2v L=0.54U W=0.24U AD=0.288P AS=0.259P
+	 PD=2.16U PS=1.92U
MXa2s_dout[20]/M+31     GND!    Xa2s_dout[20]/Rv:5      
+	Xa2s_dout[20]/9:4       GND! nmos_2v L=0.18U W=0.48U AD=0.259P
+	 AS=0.259P PD=1.56U PS=1.56U
MXa2s_dout[20]/M+32     GND!    Xa2s_dout[20]/_R.1:36   
+	Xa2s_dout[20]/8:4       GND! nmos_2v L=0.18U W=0.48U AD=0.259P
+	 AS=0.259P PD=1.56U PS=1.56U
MXa2s_dout[20]/M+37     dout[22].e:4    Xa2s_dout[20]/_Le:9     GND!
+	GND! nmos_2v L=0.18U W=2.7U AD=0.81P AS=1.458P PD=0.6U
+	 PS=3.78U
MXa2s_dout[20]/M+36     GND!    Xa2s_dout[20]/_Le:17    dout[22].e:4
+	GND! nmos_2v L=0.18U W=2.7U AD=0.81P AS=0.81P PD=0.6U PS=0.6U
MXa2s_dout[20]/M+35     dout[22].e:3    Xa2s_dout[20]/_Le:19    GND!
+	GND! nmos_2v L=0.18U W=2.7U AD=0.81P AS=0.81P PD=0.6U PS=0.6U
MXa2s_dout[20]/M+34     GND!    Xa2s_dout[20]/_Le:20    dout[22].e:3
+	GND! nmos_2v L=0.18U W=2.7U AD=1.458P AS=0.81P PD=3.78U
+	 PS=0.6U
MXa2s_dout[20]/M+33     GND!    _PReset!:6731   Xa2s_dout[20]/PReset:9
+	GND! nmos_2v L=0.18U W=1.2U AD=0.648P AS=0.648P PD=2.28U
+	 PS=2.28U
MXa2s_dout[20]/M+38     Xa2s_dout[20]/33        Xa2s_dout[20]/_clk:18
+	Xa2s_dout[20]/31:2      GND! nmos_2v L=0.18U W=1.44U AD=0.216P
+	 AS=0.605P PD=0.3U PS=2.52U
MXa2s_dout[20]/M+39     GND!    Xa2s_dout[20]/clk0:16   
+	Xa2s_dout[20]/33        GND! nmos_2v L=0.18U W=1.44U AD=0.778P
+	 AS=0.216P PD=2.52U PS=0.3U
MXa2s_dout[20]/M+40     Xa2s_dout[20]/29:1      Xa2s_dout[20]/_grant:4
+	GND!    GND! nmos_2v L=0.18U W=1.44U AD=0.605P AS=0.432P
+	 PD=2.52U PS=0.6U
MXa2s_dout[20]/M+41     GND!    Xa2s_dout[20]/_clk0:13  
+	Xa2s_dout[20]/32        GND! nmos_2v L=0.18U W=1.44U AD=0.432P
+	 AS=0.216P PD=0.6U PS=0.3U
MXa2s_dout[20]/M+42     Xa2s_dout[20]/32        clk:4275        
+	Xa2s_dout[20]/31:1      GND! nmos_2v L=0.18U W=1.44U AD=0.216P
+	 AS=0.432P PD=0.3U PS=0.6U
MXa2s_dout[20]/M+43     Xa2s_dout[20]/_noR:27   Xa2s_dout[20]/_grant:5
+	Xa2s_dout[20]/31:1      GND! nmos_2v L=0.18U W=1.44U AD=0.432P
+	 AS=0.432P PD=0.6U PS=0.6U
MXa2s_dout[20]/M+44     Xa2s_dout[20]/30        Xa2s_dout[20]/clk0:14
+	Xa2s_dout[20]/_noR:27   GND! nmos_2v L=0.18U W=1.44U AD=0.216P
+	 AS=0.432P PD=0.3U PS=0.6U
MXa2s_dout[20]/M+45     Xa2s_dout[20]/30        Xa2s_dout[20]/_clk:17
+	Xa2s_dout[20]/29:2      GND! nmos_2v L=0.18U W=1.44U AD=0.216P
+	 AS=0.432P PD=0.3U PS=0.6U
MXa2s_dout[20]/M+46     Xa2s_dout[20]/29:2      clk:4340        
+	Xa2s_dout[20]/28        GND! nmos_2v L=0.18U W=1.44U AD=0.432P
+	 AS=0.216P PD=0.6U PS=0.3U
MXa2s_dout[20]/M+47     Xa2s_dout[20]/28        Xa2s_dout[20]/_clk0:16
+	Xa2s_dout[20]/_noR:29   GND! nmos_2v L=0.18U W=1.44U AD=0.216P
+	 AS=0.605P PD=0.3U PS=2.52U
MXa2s_dout[20]/M+48     Xa2s_dout[20]/26:2      clk:4343        
+	Xa2s_dout[20]/_clk0:18  GND! nmos_2v L=0.18U W=1.92U AD=0.864P
+	 AS=0.864P PD=3U PS=3U
MXa2s_dout[20]/M+49     Xa2s_dout[20]/27:1      Xa2s_dout[20]/Rc:12
+	Xa2s_dout[20]/_clk0:24  GND! nmos_2v L=0.18U W=1.92U AD=0.864P
+	 AS=0.576P PD=3U PS=0.6U
MXa2s_dout[20]/M+50     Xa2s_dout[20]/27:2      Xa2s_dout[20]/PReset:6
+	Xa2s_dout[20]/_clk0:24  GND! nmos_2v L=0.18U W=1.92U AD=0.576P
+	 AS=0.576P PD=0.6U PS=0.6U
MXa2s_dout[20]/M+51     GND!    clk:4492        Xa2s_dout[20]/27:2
+	GND! nmos_2v L=0.18U W=1.92U AD=0.576P AS=0.576P PD=0.6U
+	 PS=0.6U
MXa2s_dout[20]/M+52     GND!    Xa2s_dout[20]/PReset:8  
+	Xa2s_dout[20]/26:1      GND! nmos_2v L=0.18U W=1.92U AD=0.576P
+	 AS=0.576P PD=0.6U PS=0.6U
MXa2s_dout[20]/M+53     Xa2s_dout[20]/26:1      Xa2s_dout[20]/Rc:8
+	GND!    GND! nmos_2v L=0.18U W=1.92U AD=0.576P AS=1.037P
+	 PD=0.6U PS=3U
MXa2s_dout[20]/M+28     Xa2s_dout[20]/15:5      oe:420  GND!    GND!
+	 nmos_2v L=0.18U W=4.08U AD=1.224P AS=2.203P PD=0.6U PS=5.16U
MXa2s_dout[20]/M+18     Xa2s_dout[20]/20        Xa2s_dout[20]/_clk0:41
+	Xa2s_dout[20]/15:5      GND! nmos_2v L=0.18U W=4.08U AD=0.612P
+	 AS=1.224P PD=0.3U PS=0.6U
MXa2s_dout[20]/M+19     Xa2s_dout[20]/17:1      clk:4908        
+	Xa2s_dout[20]/20        GND! nmos_2v L=0.18U W=4.08U AD=1.224P
+	 AS=0.612P PD=0.6U PS=0.3U
MXa2s_dout[20]/M+21     Xa2s_dout[20]/_R.1:46   dout[22].1:6    
+	Xa2s_dout[20]/17:1      GND! nmos_2v L=0.18U W=4.08U AD=1.224P
+	 AS=1.224P PD=0.6U PS=0.6U
MXa2s_dout[20]/M+20     Xa2s_dout[20]/17:5      dout[22].1:7    
+	Xa2s_dout[20]/_R.1:46   GND! nmos_2v L=0.18U W=4.08U AD=1.224P
+	 AS=1.224P PD=0.6U PS=0.6U
MXa2s_dout[20]/M+22     Xa2s_dout[20]/19        Xa2s_dout[20]/_clk:30
+	Xa2s_dout[20]/17:5      GND! nmos_2v L=0.18U W=4.08U AD=0.612P
+	 AS=1.224P PD=0.3U PS=0.6U
MXa2s_dout[20]/M+23     Xa2s_dout[20]/15:7      Xa2s_dout[20]/clk0:28
+	Xa2s_dout[20]/19        GND! nmos_2v L=0.18U W=4.08U AD=1.224P
+	 AS=0.612P PD=0.6U PS=0.3U
MXa2s_dout[20]/M+24     Xa2s_dout[20]/18        clk:4909        
+	Xa2s_dout[20]/15:7      GND! nmos_2v L=0.18U W=4.08U AD=0.612P
+	 AS=1.224P PD=0.3U PS=0.6U
MXa2s_dout[20]/M+25     Xa2s_dout[20]/17:3      Xa2s_dout[20]/_clk0:40
+	Xa2s_dout[20]/18        GND! nmos_2v L=0.18U W=4.08U AD=1.224P
+	 AS=0.612P PD=0.6U PS=0.3U
MXa2s_dout[20]/M+8      Xa2s_dout[20]/_R.0:29   dout[22].0:5    
+	Xa2s_dout[20]/21:1      GND! nmos_2v L=0.18U W=3U AD=0.9P
+	 AS=1.447P PD=0.6U PS=4.08U
MXa2s_dout[20]/M+7      Xa2s_dout[20]/21:2      dout[22].0:3    
+	Xa2s_dout[20]/_R.0:29   GND! nmos_2v L=0.18U W=3U AD=0.9P
+	 AS=0.9P PD=0.6U PS=0.6U
MXa2s_dout[20]/M+9      Xa2s_dout[20]/25        Xa2s_dout[20]/_clk:27
+	Xa2s_dout[20]/21:2      GND! nmos_2v L=0.18U W=3U AD=0.45P
+	 AS=0.9P PD=0.3U PS=0.6U
MXa2s_dout[20]/M+10     Xa2s_dout[20]/15:10     Xa2s_dout[20]/clk0:32
+	Xa2s_dout[20]/25        GND! nmos_2v L=0.18U W=3U AD=0.9P
+	 AS=0.45P PD=0.6U PS=0.3U
MXa2s_dout[20]/M+11     Xa2s_dout[20]/24        Xa2s_dout[20]/_clk:29
+	Xa2s_dout[20]/15:10     GND! nmos_2v L=0.18U W=3U AD=0.45P
+	 AS=0.9P PD=0.3U PS=0.6U
MXa2s_dout[20]/M+26     Xa2s_dout[20]/16        Xa2s_dout[20]/clk0:29
+	Xa2s_dout[20]/17:3      GND! nmos_2v L=0.18U W=4.08U AD=0.612P
+	 AS=1.224P PD=0.3U PS=0.6U
MXa2s_dout[20]/M+27     Xa2s_dout[20]/15:13     Xa2s_dout[20]/_clk:31
+	Xa2s_dout[20]/16        GND! nmos_2v L=0.18U W=4.08U AD=1.224P
+	 AS=0.612P PD=0.6U PS=0.3U
MXa2s_dout[20]/M+17     GND!    oe:452  Xa2s_dout[20]/15:13     GND!
+	 nmos_2v L=0.18U W=4.08U AD=2.203P AS=1.224P PD=5.16U PS=0.6U
MXa2s_dout[20]/M+12     Xa2s_dout[20]/21:4      Xa2s_dout[20]/clk0:33
+	Xa2s_dout[20]/24        GND! nmos_2v L=0.18U W=3U AD=0.9P
+	 AS=0.45P PD=0.6U PS=0.3U
MXa2s_dout[20]/M+0      GND!    Xa2s_dout[20]/clk0:25   
+	Xa2s_dout[20]/_clk0:60  GND! nmos_2v L=0.48U W=0.24U AD=0.288P
+	 AS=0.288P PD=2.16U PS=2.16U
MXa2s_dout[20]/M+1      Xa2s_dout[20]/_R.0:34   Xa2s_dout[20]/10:6
+	GND!    GND! nmos_2v L=0.48U W=0.24U AD=0.274P AS=0.274P
+	 PD=2.04U PS=2.04U
MXa2s_dout[20]/M+2      GND!    oe:175  Xa2s_dout[20]/_grant:7  GND!
+	 nmos_2v L=0.18U W=1.2U AD=0.648P AS=0.648P PD=2.28U PS=2.28U
MXa2s_dout[20]/M+5      Xa2s_dout[20]/_clk:32   clk:4974        GND!
+	GND! nmos_2v L=0.18U W=2.04U AD=1.102P AS=1.102P PD=3.12U
+	 PS=3.12U
MXa2s_dout[20]/M+4      GND!    Xa2s_dout[20]/_clk0:49  
+	Xa2s_dout[20]/clk0:23   GND! nmos_2v L=0.18U W=1.2U AD=0.648P
+	 AS=0.36P PD=2.28U PS=0.6U
MXa2s_dout[20]/M+3      Xa2s_dout[20]/clk0:23   Xa2s_dout[20]/_clk0:51
+	GND!    GND! nmos_2v L=0.18U W=1.2U AD=0.36P AS=0.648P PD=0.6U
+	 PS=2.28U
MXa2s_dout[20]/M+6      Xa2s_dout[20]/10:4      Xa2s_dout[20]/_R.0:30
+	GND!    GND! nmos_2v L=0.18U W=0.48U AD=0.259P AS=0.259P
+	 PD=1.56U PS=1.56U
MXa2s_dout[20]/M+13     Xa2s_dout[20]/23        Xa2s_dout[20]/_clk0:39
+	Xa2s_dout[20]/21:4      GND! nmos_2v L=0.18U W=3U AD=0.45P
+	 AS=0.9P PD=0.3U PS=0.6U
MXa2s_dout[20]/M+14     Xa2s_dout[20]/15:12     clk:4844        
+	Xa2s_dout[20]/23        GND! nmos_2v L=0.18U W=3U AD=0.9P
+	 AS=0.45P PD=0.6U PS=0.3U
MXa2s_dout[20]/M+15     Xa2s_dout[20]/22        Xa2s_dout[20]/_clk0:59
+	Xa2s_dout[20]/15:12     GND! nmos_2v L=0.18U W=3U AD=0.45P
+	 AS=0.9P PD=0.3U PS=0.6U
MXa2s_dout[20]/M+16     Xa2s_dout[20]/21:6      clk:4845        
+	Xa2s_dout[20]/22        GND! nmos_2v L=0.18U W=3U AD=1.447P
+	 AS=0.45P PD=4.08U PS=0.3U
MXa2s_dout[20]/M+138    odq[20]:12      Xa2s_dout[20]/_r:2      Vdd!
+	Vdd! pmos_2v L=0.18U W=2.22U AD=0.666P AS=1.199P PD=0.6U
+	 PS=3.3U
MXa2s_dout[20]/M+139    Vdd!    Xa2s_dout[20]/_R.1:3    odq[20]:12
+	Vdd! pmos_2v L=0.18U W=2.22U AD=0.666P AS=0.666P PD=0.6U
+	 PS=0.6U
MXa2s_dout[20]/M+136    odq[20]:1       Xa2s_dout[20]/_r:5      Vdd!
+	Vdd! pmos_2v L=0.18U W=2.22U AD=0.666P AS=0.666P PD=0.6U
+	 PS=0.6U
MXa2s_dout[20]/M+137    Vdd!    Xa2s_dout[20]/_R.1:6    odq[20]:1
+	Vdd! pmos_2v L=0.18U W=2.22U AD=0.666P AS=0.666P PD=0.6U
+	 PS=0.6U
MXa2s_dout[20]/M+134    odq[20]:16      Xa2s_dout[20]/_r:11     Vdd!
+	Vdd! pmos_2v L=0.18U W=2.22U AD=0.666P AS=0.666P PD=0.6U
+	 PS=0.6U
MXa2s_dout[20]/M+135    Vdd!    Xa2s_dout[20]/_R.1:9    odq[20]:16
+	Vdd! pmos_2v L=0.18U W=2.22U AD=0.666P AS=0.666P PD=0.6U
+	 PS=0.6U
MXa2s_dout[20]/M+132    odq[20]:11      Xa2s_dout[20]/_r:8      Vdd!
+	Vdd! pmos_2v L=0.18U W=2.22U AD=0.666P AS=0.666P PD=0.6U
+	 PS=0.6U
MXa2s_dout[20]/M+133    Vdd!    Xa2s_dout[20]/_R.1:12   odq[20]:11
+	Vdd! pmos_2v L=0.18U W=2.22U AD=1.199P AS=0.666P PD=3.3U
+	 PS=0.6U
MXa2s_dout[20]/M+140    Vdd!    _SReset!:5206   Xa2s_dout[20]/_r:16
+	Vdd! pmos_2v L=0.18U W=3.06U AD=0.918P AS=1.652P PD=0.6U
+	 PS=4.14U
MXa2s_dout[20]/M+99     Vdd!    Xa2s_dout[20]/_r:20     
+	Xa2s_dout[20]/5 Vdd! pmos_2v L=0.18U W=1.2U AD=0.648P AS=0.18P
+	 PD=2.28U PS=0.3U
MXa2s_dout[20]/M+100    Xa2s_dout[20]/5 Xa2s_dout[20]/_R.1:31   
+	Xa2s_dout[20]/Rv:11     Vdd! pmos_2v L=0.18U W=1.2U AD=0.18P
+	 AS=0.36P PD=0.3U PS=0.6U
MXa2s_dout[20]/M+101    Xa2s_dout[20]/Rv:11     Xa2s_dout[20]/_R.0:17
+	Xa2s_dout[20]/4 Vdd! pmos_2v L=0.18U W=1.2U AD=0.36P AS=0.18P
+	 PD=0.6U PS=0.3U
MXa2s_dout[20]/M+102    Vdd!    odq[20]:21      Xa2s_dout[20]/4 Vdd!
+	 pmos_2v L=0.18U W=1.2U AD=0.36P AS=0.18P PD=0.6U PS=0.3U
MXa2s_dout[20]/M+103    Xa2s_dout[20]/3 Xa2s_dout[20]/_R.1:29   Vdd!
+	Vdd! pmos_2v L=0.18U W=1.2U AD=0.18P AS=0.36P PD=0.3U PS=0.6U
MXa2s_dout[20]/M+104    Xa2s_dout[20]/3 Xa2s_dout[20]/_r:19     
+	Xa2s_dout[20]/Rv:14     Vdd! pmos_2v L=0.18U W=1.2U AD=0.18P
+	 AS=0.36P PD=0.3U PS=0.6U
MXa2s_dout[20]/M+105    Xa2s_dout[20]/Rv:14     odq[20]:19      
+	Xa2s_dout[20]/2 Vdd! pmos_2v L=0.18U W=1.2U AD=0.36P AS=0.18P
+	 PD=0.6U PS=0.3U
MXa2s_dout[20]/M+106    Xa2s_dout[20]/2 Xa2s_dout[20]/_R.0:13   Vdd!
+	Vdd! pmos_2v L=0.18U W=1.2U AD=0.18P AS=0.648P PD=0.3U
+	 PS=2.28U
MXa2s_dout[20]/M+107    Xa2s_dout[20]/14        Xa2s_dout[20]/clk0:2
+	Vdd!    Vdd! pmos_2v L=0.18U W=2.16U AD=0.324P AS=1.166P
+	 PD=0.3U PS=3.24U
MXa2s_dout[20]/M+108    Xa2s_dout[20]/14        clk:3718        
+	Xa2s_dout[20]/_noR:21   Vdd! pmos_2v L=0.18U W=2.16U AD=0.324P
+	 AS=0.648P PD=0.3U PS=0.6U
MXa2s_dout[20]/M+109    Xa2s_dout[20]/_noR:21   Xa2s_dout[20]/_clk:5
+	Xa2s_dout[20]/13        Vdd! pmos_2v L=0.18U W=2.16U AD=0.648P
+	 AS=0.324P PD=0.6U PS=0.3U
MXa2s_dout[20]/M+110    Xa2s_dout[20]/13        Xa2s_dout[20]/_clk0:9
+	Vdd!    Vdd! pmos_2v L=0.18U W=2.16U AD=0.324P AS=0.648P
+	 PD=0.3U PS=0.6U
MXa2s_dout[20]/M+111    Vdd!    Xa2s_dout[20]/_clk:3    
+	Xa2s_dout[20]/12        Vdd! pmos_2v L=0.18U W=2.16U AD=0.648P
+	 AS=0.324P PD=0.6U PS=0.3U
MXa2s_dout[20]/M+112    Xa2s_dout[20]/_noR:22   Xa2s_dout[20]/_clk0:10
+	Xa2s_dout[20]/12        Vdd! pmos_2v L=0.18U W=2.16U AD=0.648P
+	 AS=0.324P PD=0.6U PS=0.3U
MXa2s_dout[20]/M+113    Xa2s_dout[20]/_noR:22   Xa2s_dout[20]/clk0:4
+	Xa2s_dout[20]/11        Vdd! pmos_2v L=0.18U W=2.16U AD=0.648P
+	 AS=0.324P PD=0.6U PS=0.3U
MXa2s_dout[20]/M+114    Xa2s_dout[20]/11        clk:3800        Vdd!
+	Vdd! pmos_2v L=0.18U W=2.16U AD=0.324P AS=1.166P PD=0.3U
+	 PS=3.24U
MXa2s_dout[20]/M+115    Vdd!    clk:3797        Xa2s_dout[20]/1:1
+	Vdd! pmos_2v L=0.18U W=3.84U AD=1.152P AS=1.901P PD=0.6U
+	 PS=4.92U
MXa2s_dout[20]/M+98     Vdd!    dout[22].1:3    Xa2s_dout[20]/_R.1:32
+	Vdd! pmos_2v L=0.18U W=4.38U AD=2.365P AS=2.365P PD=5.46U
+	 PS=5.46U
MXa2s_dout[20]/M+89     Xa2s_dout[20]/9:5       Xa2s_dout[20]/Rv:7
+	Vdd!    Vdd! pmos_2v L=0.18U W=0.48U AD=0.259P AS=0.259P
+	 PD=1.56U PS=1.56U
MXa2s_dout[20]/M+90     Xa2s_dout[20]/8:5       Xa2s_dout[20]/_R.1:38
+	Vdd!    Vdd! pmos_2v L=0.18U W=0.48U AD=0.259P AS=0.259P
+	 PD=1.56U PS=1.56U
MXa2s_dout[20]/M+91     Xa2s_dout[20]/PReset:10 _PReset!:6732   Vdd!
+	Vdd! pmos_2v L=0.18U W=1.2U AD=0.648P AS=0.648P PD=2.28U
+	 PS=2.28U
MXa2s_dout[20]/M+92     Xa2s_dout[20]/Rv:10     Xa2s_dout[20]/9:1
+	Vdd!    Vdd! pmos_2v L=0.24U W=0.24U AD=0.302P AS=0.317P
+	 PD=2.28U PS=2.4U
MXa2s_dout[20]/M+93     Xa2s_dout[20]/_R.1:43   Xa2s_dout[20]/8:1
+	Vdd!    Vdd! pmos_2v L=0.24U W=0.24U AD=0.274P AS=0.331P
+	 PD=2.04U PS=2.52U
MXa2s_dout[20]/M+97     dout[22].e:5    Xa2s_dout[20]/_Le:11    Vdd!
+	Vdd! pmos_2v L=0.18U W=2.64U AD=0.792P AS=1.426P PD=0.6U
+	 PS=3.72U
MXa2s_dout[20]/M+96     Vdd!    Xa2s_dout[20]/_Le:16    dout[22].e:5
+	Vdd! pmos_2v L=0.18U W=2.64U AD=0.792P AS=0.792P PD=0.6U
+	 PS=0.6U
MXa2s_dout[20]/M+95     Vdd!    Xa2s_dout[20]/_Le:18    dout[22].e:6
+	Vdd! pmos_2v L=0.18U W=2.64U AD=0.792P AS=0.792P PD=0.6U
+	 PS=0.6U
MXa2s_dout[20]/M+94     dout[22].e:6    Xa2s_dout[20]/_Le:15    Vdd!
+	Vdd! pmos_2v L=0.18U W=2.64U AD=0.792P AS=1.426P PD=0.6U
+	 PS=3.72U
MXa2s_dout[20]/M+116    Xa2s_dout[20]/0:7       _PReset!:6256   Vdd!
+	Vdd! pmos_2v L=0.18U W=3.84U AD=1.152P AS=1.152P PD=0.6U
+	 PS=0.6U
MXa2s_dout[20]/M+117    Xa2s_dout[20]/_clk0:1   clk:3799        
+	Xa2s_dout[20]/0:7       Vdd! pmos_2v L=0.18U W=3.84U AD=1.152P
+	 AS=1.152P PD=0.6U PS=0.6U
MXa2s_dout[20]/M+118    Xa2s_dout[20]/1:2       Xa2s_dout[20]/_R.0:21
+	Xa2s_dout[20]/_clk0:1   Vdd! pmos_2v L=0.18U W=3.84U AD=1.152P
+	 AS=1.152P PD=0.6U PS=0.6U
MXa2s_dout[20]/M+119    Xa2s_dout[20]/_clk0:2   _PReset!:6254   
+	Xa2s_dout[20]/1:2       Vdd! pmos_2v L=0.18U W=3.84U AD=1.152P
+	 AS=1.152P PD=0.6U PS=0.6U
MXa2s_dout[20]/M+127    Vdd!    Xa2s_dout[20]/7:1       
+	Xa2s_dout[20]/__Le:8    Vdd! pmos_2v L=0.24U W=0.24U AD=0.331P
+	 AS=0.274P PD=2.52U PS=2.04U
MXa2s_dout[20]/M+141    Xa2s_dout[20]/_r:13     odq[20]:18      Vdd!
+	Vdd! pmos_2v L=0.18U W=3.06U AD=0.918P AS=0.918P PD=0.6U
+	 PS=0.6U
MXa2s_dout[20]/M+142    Vdd!    Xa2s_dout[20]/_R.0:23   
+	Xa2s_dout[20]/_r:13     Vdd! pmos_2v L=0.18U W=3.06U AD=1.652P
+	 AS=0.918P PD=4.14U PS=0.6U
MXa2s_dout[20]/M+143    Xa2s_dout[20]/__Le:9    Xa2s_dout[20]/Rv:1
+	Vdd!    Vdd! pmos_2v L=0.18U W=2.16U AD=1.166P AS=1.166P
+	 PD=3.24U PS=3.24U
MXa2s_dout[20]/M+125    Vdd!    Xa2s_dout[20]/__Le:3    
+	Xa2s_dout[20]/7:5       Vdd! pmos_2v L=0.18U W=0.48U AD=0.259P
+	 AS=0.259P PD=1.56U PS=1.56U
MXa2s_dout[20]/M+81     Vdd!    oe:176  Xa2s_dout[20]/_grant:6  Vdd!
+	 pmos_2v L=0.18U W=1.2U AD=0.648P AS=0.648P PD=2.28U PS=2.28U
MXa2s_dout[20]/M+120    Xa2s_dout[20]/1:4       Xa2s_dout[20]/_R.1:34
+	Xa2s_dout[20]/_clk0:2   Vdd! pmos_2v L=0.18U W=3.84U AD=1.152P
+	 AS=1.152P PD=0.6U PS=0.6U
MXa2s_dout[20]/M+121    Xa2s_dout[20]/_clk0:4   Xa2s_dout[20]/_noR:25
+	Xa2s_dout[20]/1:4       Vdd! pmos_2v L=0.18U W=3.84U AD=1.901P
+	 AS=1.152P PD=4.92U PS=0.6U
MXa2s_dout[20]/M+122    Vdd!    Xa2s_dout[20]/_noR:26   
+	Xa2s_dout[20]/0:3       Vdd! pmos_2v L=0.18U W=3.84U AD=1.152P
+	 AS=1.901P PD=0.6U PS=4.92U
MXa2s_dout[20]/M+144    Vdd!    Xa2s_dout[20]/__Le:5    
+	Xa2s_dout[20]/_Le:6     Vdd! pmos_2v L=0.18U W=5.52U AD=2.981P
+	 AS=1.656P PD=6.6U PS=0.6U
MXa2s_dout[20]/M+145    Vdd!    _PReset!:6026   Xa2s_dout[20]/_Le:6
+	Vdd! pmos_2v L=0.18U W=5.52U AD=2.981P AS=1.656P PD=6.6U
+	 PS=0.6U
MXa2s_dout[20]/M+123    Xa2s_dout[20]/0:5       Xa2s_dout[20]/_R.1:35
+	Vdd!    Vdd! pmos_2v L=0.18U W=3.84U AD=1.152P AS=1.152P
+	 PD=0.6U PS=0.6U
MXa2s_dout[20]/M+124    Vdd!    Xa2s_dout[20]/_R.0:18   
+	Xa2s_dout[20]/0:5       Vdd! pmos_2v L=0.18U W=3.84U AD=2.074P
+	 AS=1.152P PD=4.92U PS=0.6U
MXa2s_dout[20]/M+126    Xa2s_dout[20]/6:5       Xa2s_dout[20]/_noR:5
+	Vdd!    Vdd! pmos_2v L=0.18U W=0.48U AD=0.259P AS=0.259P
+	 PD=1.56U PS=1.56U
MXa2s_dout[20]/M+128    Xa2s_dout[20]/_noR:10   Xa2s_dout[20]/6:1
+	Vdd!    Vdd! pmos_2v L=0.24U W=0.24U AD=0.302P AS=0.317P
+	 PD=2.28U PS=2.4U
MXa2s_dout[20]/M+129    Xa2s_dout[20]/Rc:5      Xa2s_dout[20]/_noR:13
+	Vdd!    Vdd! pmos_2v L=0.18U W=1.92U AD=1.037P AS=0.576P PD=3U
+	 PS=0.6U
MXa2s_dout[20]/M+130    Xa2s_dout[20]/Rc:6      Xa2s_dout[20]/_R.0:20
+	Vdd!    Vdd! pmos_2v L=0.18U W=1.92U AD=0.576P AS=0.576P
+	 PD=0.6U PS=0.6U
MXa2s_dout[20]/M+131    Vdd!    Xa2s_dout[20]/_R.1:17   
+	Xa2s_dout[20]/Rc:6      Vdd! pmos_2v L=0.18U W=1.92U AD=1.037P
+	 AS=0.576P PD=3U PS=0.6U
MXa2s_dout[20]/M+82     Vdd!    Xa2s_dout[20]/_R.0:32   
+	Xa2s_dout[20]/10:5      Vdd! pmos_2v L=0.18U W=0.48U AD=0.259P
+	 AS=0.259P PD=1.56U PS=1.56U
MXa2s_dout[20]/M+83     Vdd!    Xa2s_dout[20]/10:1      
+	Xa2s_dout[20]/_R.0:35   Vdd! pmos_2v L=0.24U W=0.24U AD=0.331P
+	 AS=0.274P PD=2.52U PS=2.04U
MXa2s_dout[20]/M+85     Xa2s_dout[20]/clk0:24   Xa2s_dout[20]/_clk0:47
+	Vdd!    Vdd! pmos_2v L=0.18U W=1.74U AD=0.522P AS=0.94P
+	 PD=0.6U PS=2.82U
MXa2s_dout[20]/M+84     Vdd!    Xa2s_dout[20]/_clk0:45  
+	Xa2s_dout[20]/clk0:24   Vdd! pmos_2v L=0.18U W=1.74U AD=0.94P
+	 AS=0.522P PD=2.82U PS=0.6U
MXa2s_dout[20]/M+86     Vdd!    clk:4975        Xa2s_dout[20]/_clk:33
+	Vdd! pmos_2v L=0.18U W=3.24U AD=1.75P AS=1.75P PD=4.32U
+	 PS=4.32U
MXa2s_dout[20]/M+87     Xa2s_dout[20]/_clk0:30  Xa2s_dout[20]/clk0:19
+	Vdd!    Vdd! pmos_2v L=0.24U W=0.24U AD=0.274P AS=0.36P
+	 PD=2.04U PS=2.76U
MXa2s_dout[20]/M+88     Vdd!    dout[22].0:2    Xa2s_dout[20]/_R.0:25
+	Vdd! pmos_2v L=0.18U W=3.18U AD=1.717P AS=1.717P PD=4.26U
+	 PS=4.26U
Rg66091 Xa2s_dout[22]/Rv:1      Xa2s_dout[22]/Rv:2 84.3517 $cpoly
Rg66092 Xa2s_dout[21]/Rv:1      Xa2s_dout[21]/Rv:2 84.3517 $cpoly
Rg66093 Xa2s_dout[20]/Rv:1      Xa2s_dout[20]/Rv:2 84.3517 $cpoly
Rg66094 Xa2s_dout[19]/Rv:1      Xa2s_dout[19]/Rv:2 84.3517 $cpoly
Rg66095 Xa2s_dout[18]/Rv:1      Xa2s_dout[18]/Rv:2 84.3517 $cpoly
Rg66140 Xa2s_dout[22]/6:1       Xa2s_dout[22]/6:2 8.7495 $cpoly
Rg66141 Xa2s_dout[21]/6:1       Xa2s_dout[21]/6:2 8.7495 $cpoly
Rg66142 Xa2s_dout[20]/6:1       Xa2s_dout[20]/6:2 8.7495 $cpoly
Rg66143 Xa2s_dout[19]/6:1       Xa2s_dout[19]/6:2 8.7495 $cpoly
Rg66144 Xa2s_dout[18]/6:1       Xa2s_dout[18]/6:2 8.7495 $cpoly
Rg66172 Xa2s_dout[22]/7:1       Xa2s_dout[22]/7:2 11.8495 $cpoly
Rg66173 Xa2s_dout[21]/7:1       Xa2s_dout[21]/7:2 11.8495 $cpoly
Rg66174 Xa2s_dout[20]/7:1       Xa2s_dout[20]/7:2 11.8495 $cpoly
Rg66175 Xa2s_dout[19]/7:1       Xa2s_dout[19]/7:2 11.8495 $cpoly
Rg66176 Xa2s_dout[18]/7:1       Xa2s_dout[18]/7:2 11.8495 $cpoly
Rg66303 Xa2s_dout[21]/_noR:4    Xa2s_dout[21]/_noR:5 23.9733 $cpoly
Rg66304 Xa2s_dout[21]/_noR:4    Xa2s_dout[21]/_noR:8 16.6712 $cpoly
Rg66305 Xa2s_dout[20]/__Le:1    Xa2s_dout[20]/__Le:2 23.9733 $cpoly
Rg66306 Xa2s_dout[20]/__Le:2    Xa2s_dout[20]/__Le:3 23.9733 $cpoly
Rg66307 Xa2s_dout[20]/__Le:2    Xa2s_dout[20]/__Le:4 16.6712 $cpoly
Rg66308 Xa2s_dout[20]/_noR:3    Xa2s_dout[20]/_noR:4 23.9733 $cpoly
Rg66309 Xa2s_dout[20]/_noR:4    Xa2s_dout[20]/_noR:5 23.9733 $cpoly
Rg66310 Xa2s_dout[20]/_noR:4    Xa2s_dout[20]/_noR:8 16.6712 $cpoly
Rg66311 Xa2s_dout[19]/__Le:1    Xa2s_dout[19]/__Le:2 23.9733 $cpoly
Rg66312 Xa2s_dout[19]/__Le:2    Xa2s_dout[19]/__Le:3 23.9733 $cpoly
Rg66444 Xa2s_dout[22]/_R.0:1    Xa2s_dout[22]/_R.0:3 140.1517 $cpoly
Rg66445 Xa2s_dout[21]/_R.0:1    Xa2s_dout[21]/_R.0:3 140.1517 $cpoly
Rg66446 Xa2s_dout[20]/_R.0:1    Xa2s_dout[20]/_R.0:3 140.1517 $cpoly
Rg66447 Xa2s_dout[19]/_R.0:1    Xa2s_dout[19]/_R.0:3 140.1517 $cpoly
Rg66448 Xa2s_dout[18]/_R.0:1    Xa2s_dout[18]/_R.0:3 140.1517 $cpoly
Rg66476 Xa2s_dout[22]/6:3       Xa2s_dout[22]/6:6 3.4068 $cpoly
Rg66477 Xa2s_dout[21]/6:3       Xa2s_dout[21]/6:6 3.4068 $cpoly
Rg66478 Xa2s_dout[20]/6:3       Xa2s_dout[20]/6:6 3.4068 $cpoly
Rg66479 Xa2s_dout[19]/6:3       Xa2s_dout[19]/6:6 3.4068 $cpoly
Rg66480 Xa2s_dout[18]/6:3       Xa2s_dout[18]/6:6 3.4068 $cpoly
Rg66530 Xa2s_dout[21]/_noR:12   Xa2s_dout[21]/_noR:13 48.0869 $cpoly
Rg66531 Xa2s_dout[21]/_noR:12   Xa2s_dout[21]/_noR:1 30.5776 $cpoly
Rg66532 Xa2s_dout[20]/_noR:11   Xa2s_dout[20]/_noR:12 49.1202 $cpoly
Rg66533 Xa2s_dout[20]/_noR:12   Xa2s_dout[20]/_noR:13 48.0869 $cpoly
Rg66534 Xa2s_dout[20]/_noR:12   Xa2s_dout[20]/_noR:1 30.5776 $cpoly
Rg66535 Xa2s_dout[19]/_noR:11   Xa2s_dout[19]/_noR:12 49.1202 $cpoly
Rg66536 Xa2s_dout[19]/_noR:12   Xa2s_dout[19]/_noR:13 48.0869 $cpoly
Rg66604 Xa2s_dout[22]/7:6       Xa2s_dout[22]/7:3 5.8022 $cpoly
Rg66605 Xa2s_dout[21]/7:6       Xa2s_dout[21]/7:3 5.8022 $cpoly
Rg66606 Xa2s_dout[20]/7:6       Xa2s_dout[20]/7:3 5.8022 $cpoly
Rg66607 Xa2s_dout[19]/7:6       Xa2s_dout[19]/7:3 5.8022 $cpoly
Rg66608 Xa2s_dout[18]/7:6       Xa2s_dout[18]/7:3 5.8022 $cpoly
Rg66663 Xa2s_dout[21]/_r:1      Xa2s_dout[21]/_r:2 127.8179 $cpoly
Rg66664 Xa2s_dout[21]/_r:2      Xa2s_dout[21]/_r:3 49.5235 $cpoly
Rg66665 Xa2s_dout[20]/_r:1      Xa2s_dout[20]/_r:2 127.8179 $cpoly
Rg66666 Xa2s_dout[20]/_r:2      Xa2s_dout[20]/_r:3 49.5235 $cpoly
Rg66667 Xa2s_dout[19]/_r:1      Xa2s_dout[19]/_r:2 127.8179 $cpoly
Rg66668 Xa2s_dout[19]/_r:2      Xa2s_dout[19]/_r:3 49.5235 $cpoly
Rg66749 Xa2s_dout[21]/_r:7      Xa2s_dout[21]/_r:8 117.4846 $cpoly
Rg66750 Xa2s_dout[21]/_r:8      Xa2s_dout[21]/_r:9 49.5235 $cpoly
Rg66751 Xa2s_dout[20]/_r:4      Xa2s_dout[20]/_r:5 117.4846 $cpoly
Rg66752 Xa2s_dout[20]/_r:5      Xa2s_dout[20]/_r:6 49.5235 $cpoly
Rg66753 Xa2s_dout[20]/_r:7      Xa2s_dout[20]/_r:8 117.4846 $cpoly
Rg66754 Xa2s_dout[20]/_r:8      Xa2s_dout[20]/_r:9 49.5235 $cpoly
Rg66755 Xa2s_dout[19]/_r:4      Xa2s_dout[19]/_r:5 117.4846 $cpoly
Rg66756 Xa2s_dout[19]/_r:5      Xa2s_dout[19]/_r:6 49.5235 $cpoly
Rg66855 Xa2s_dout[21]/_r:10     Xa2s_dout[21]/_r:11 112.6230 $cpoly
Rg66856 Xa2s_dout[21]/_r:11     Xa2s_dout[21]/_r:12 49.5235 $cpoly
Rg66857 Xa2s_dout[20]/_r:10     Xa2s_dout[20]/_r:11 112.6230 $cpoly
Rg66858 Xa2s_dout[20]/_r:11     Xa2s_dout[20]/_r:12 49.5235 $cpoly
Rg66859 Xa2s_dout[19]/_r:10     Xa2s_dout[19]/_r:11 112.6230 $cpoly
Rg66860 Xa2s_dout[19]/_r:11     Xa2s_dout[19]/_r:12 49.5235 $cpoly
Rg67059 Xa2s_dout[21]/_R.1:10   Xa2s_dout[21]/_R.1:11 52.6235 $cpoly
Rg67060 Xa2s_dout[21]/_R.1:11   Xa2s_dout[21]/_R.1:12 127.8179 $cpoly
Rg67061 Xa2s_dout[20]/_R.1:1    Xa2s_dout[20]/_R.1:2 52.6235 $cpoly
Rg67062 Xa2s_dout[20]/_R.1:2    Xa2s_dout[20]/_R.1:3 117.4846 $cpoly
Rg67063 Xa2s_dout[20]/_R.1:4    Xa2s_dout[20]/_R.1:5 52.6235 $cpoly
Rg67064 Xa2s_dout[20]/_R.1:5    Xa2s_dout[20]/_R.1:6 112.6230 $cpoly
Rg67065 Xa2s_dout[20]/_R.1:7    Xa2s_dout[20]/_R.1:8 52.6235 $cpoly
Rg67066 Xa2s_dout[20]/_R.1:8    Xa2s_dout[20]/_R.1:9 117.4846 $cpoly
Rg67067 Xa2s_dout[20]/_R.1:10   Xa2s_dout[20]/_R.1:11 52.6235 $cpoly
Rg67068 Xa2s_dout[20]/_R.1:11   Xa2s_dout[20]/_R.1:12 127.8179 $cpoly
Rg67069 Xa2s_dout[19]/_R.1:1    Xa2s_dout[19]/_R.1:2 52.6235 $cpoly
Rg67070 Xa2s_dout[19]/_R.1:2    Xa2s_dout[19]/_R.1:3 117.4846 $cpoly
Rg67238 Xa2s_dout[22]/_R.1:13   Xa2s_dout[22]/_R.1:14 114.5237 $cpoly
Rg67239 Xa2s_dout[21]/_R.1:13   Xa2s_dout[21]/_R.1:14 114.5237 $cpoly
Rg67240 Xa2s_dout[20]/_R.1:13   Xa2s_dout[20]/_R.1:14 114.5237 $cpoly
Rg67241 Xa2s_dout[19]/_R.1:13   Xa2s_dout[19]/_R.1:14 114.5237 $cpoly
Rg67242 Xa2s_dout[18]/_R.1:13   Xa2s_dout[18]/_R.1:14 114.5237 $cpoly
Rg67281 Xa2s_dout[21]/_R.1:15   Xa2s_dout[21]/_R.1:16 68.8826 $cpoly
Rg67282 Xa2s_dout[21]/_R.1:16   Xa2s_dout[21]/_R.1:17 113.3512 $cpoly
Rg67283 Xa2s_dout[20]/_R.1:15   Xa2s_dout[20]/_R.1:16 68.8826 $cpoly
Rg67284 Xa2s_dout[20]/_R.1:16   Xa2s_dout[20]/_R.1:17 113.3512 $cpoly
Rg67285 Xa2s_dout[19]/_R.1:15   Xa2s_dout[19]/_R.1:16 68.8826 $cpoly
Rg67286 Xa2s_dout[19]/_R.1:16   Xa2s_dout[19]/_R.1:17 113.3512 $cpoly
Rg67381 Xa2s_dout[21]/__Le:5    Xa2s_dout[21]/__Le:6 181.5512 $cpoly
Rg67382 Xa2s_dout[21]/__Le:6    Xa2s_dout[21]/__Le:7 94.0159 $cpoly
Rg67383 Xa2s_dout[20]/__Le:5    Xa2s_dout[20]/__Le:6 181.5512 $cpoly
Rg67384 Xa2s_dout[20]/__Le:6    Xa2s_dout[20]/__Le:7 94.0159 $cpoly
Rg67385 Xa2s_dout[19]/__Le:5    Xa2s_dout[19]/__Le:6 181.5512 $cpoly
Rg67386 Xa2s_dout[19]/__Le:6    Xa2s_dout[19]/__Le:7 94.0159 $cpoly
Rg68373 Xa2s_dout[22]/_R.1:18   Xa2s_dout[22]/_R.1:29 77.1492 $cpoly
Rg68374 Xa2s_dout[21]/_R.1:18   Xa2s_dout[21]/_R.1:29 77.1492 $cpoly
Rg68375 Xa2s_dout[20]/_R.1:18   Xa2s_dout[20]/_R.1:29 77.1492 $cpoly
Rg68376 Xa2s_dout[19]/_R.1:18   Xa2s_dout[19]/_R.1:29 77.1492 $cpoly
Rg68377 Xa2s_dout[18]/_R.1:18   Xa2s_dout[18]/_R.1:29 77.1492 $cpoly
Rg68405 Xa2s_dout[22]/_r:19     Xa2s_dout[22]/_r:17 54.6902 $cpoly
Rg68406 Xa2s_dout[21]/_r:19     Xa2s_dout[21]/_r:17 54.6902 $cpoly
Rg68407 Xa2s_dout[20]/_r:19     Xa2s_dout[20]/_r:17 54.6902 $cpoly
Rg68408 Xa2s_dout[19]/_r:19     Xa2s_dout[19]/_r:17 54.6902 $cpoly
Rg68409 Xa2s_dout[18]/_r:19     Xa2s_dout[18]/_r:17 54.6902 $cpoly
Rg68437 Xa2s_dout[22]/_r:20     Xa2s_dout[22]/_r:18 100.5210 $cpoly
Rg68438 Xa2s_dout[21]/_r:20     Xa2s_dout[21]/_r:18 100.5210 $cpoly
Rg68439 Xa2s_dout[20]/_r:20     Xa2s_dout[20]/_r:18 100.5210 $cpoly
Rg68440 Xa2s_dout[19]/_r:20     Xa2s_dout[19]/_r:18 100.5210 $cpoly
Rg68441 Xa2s_dout[18]/_r:20     Xa2s_dout[18]/_r:18 100.5210 $cpoly
Rg68469 Xa2s_dout[22]/_R.0:13   Xa2s_dout[22]/_R.0:9 80.4418 $cpoly
Rg68470 Xa2s_dout[21]/_R.0:13   Xa2s_dout[21]/_R.0:9 80.4418 $cpoly
Rg68471 Xa2s_dout[20]/_R.0:13   Xa2s_dout[20]/_R.0:9 80.4418 $cpoly
Rg68472 Xa2s_dout[19]/_R.0:13   Xa2s_dout[19]/_R.0:9 80.4418 $cpoly
Rg68473 Xa2s_dout[18]/_R.0:13   Xa2s_dout[18]/_R.0:9 80.4418 $cpoly
Rg68651 Xa2s_dout[21]/_clk:4    Xa2s_dout[21]/_clk:1 53.3798 $cpoly