* spice2spice --top=core_D_crypto_D_bitcoin_D_clock_D_TEST_U_CLOCK_U_GEN4_U_LATCH_D_1000 --icf=0 --rename=0 --flatten-top=0 --probe-top-ports=1 --probe-ports=1 --probe-gates=1 --skip-parms=x,y,llx,lly,urx,ury,si_l,si_w /nfs/pdx/disks/or_n3a_disk001/w138/amlines/lve/CLOCK_GEN4/core/crypto/bitcoin/clock/TEST_CLOCK_GEN4_LATCH/1000/layout/tttt/100C/extracted/cell.spice_gds2 /nfs/pdx/disks/or_n3a_disk001/w138/amlines/lve/CLOCK_GEN4/core/crypto/bitcoin/clock/TEST_CLOCK_GEN4_LATCH/1000/layout/tttt/100C/extracted/cell.hspice.tmp

.SUBCKT core_D_crypto_D_bitcoin_D_clock_D_TEST_U_CLOCK_U_GEN4_U_LATCH_D_1000 CLK_l_0_r_ CLK_l_1_r_ CLK_l_2_r_ CLK_l_3_r_ GND PW_U_DLY_l_0_r_ PW_U_DLY_l_1_r_ PW_U_DLY_l_2_r_ PW_U_DLY_l_3_r_ REFCLK Vdd _U_RESET
RxPW_U_DLY_l_3_r_ PW_U_DLY_l_3_r_ PW_U_DLY_l_3_r_:F1 0.001000
Cg3_1 PW_U_DLY_l_3_r_:F1 COUPLING_GND 5.4006937e-17
Cg3_2 PW_U_DLY_l_3_r_:F2 COUPLING_GND 1.8510972e-17
Cg3_3 PW_U_DLY_l_3_r_:F3 COUPLING_GND 1.8747266e-17
Cg3_4 PW_U_DLY_l_3_r_:F6 COUPLING_GND 1.8553578e-17
Cg3_5 PW_U_DLY_l_3_r_:F7 COUPLING_GND 1.8747266e-17
Cg3_6 PW_U_DLY_l_3_r_:F10 COUPLING_GND 1.8510972e-17
Cg3_7 PW_U_DLY_l_3_r_:F11 COUPLING_GND 1.8747266e-17
Cg3_8 PW_U_DLY_l_3_r_:F14 COUPLING_GND 1.8510972e-17
Cg3_9 PW_U_DLY_l_3_r_:F15 COUPLING_GND 1.8747266e-17
Cg3_10 PW_U_DLY_l_3_r_:F18 COUPLING_GND 2.3986377e-17
Cg3_11 PW_U_DLY_l_3_r_:19 COUPLING_GND 1.0994574e-17
Cg3_12 PW_U_DLY_l_3_r_:20 COUPLING_GND 1.1089282e-17
Cg3_13 PW_U_DLY_l_3_r_:21 COUPLING_GND 1.0994574e-17
Cg3_14 PW_U_DLY_l_3_r_:22 COUPLING_GND 1.0994574e-17
Cg3_15 PW_U_DLY_l_3_r_:23 COUPLING_GND 1.2012854e-17
Cg3_16 PW_U_DLY_l_3_r_:24 COUPLING_GND 1.2012854e-17
Cg3_17 PW_U_DLY_l_3_r_:25 COUPLING_GND 1.2012854e-17
Cg3_18 PW_U_DLY_l_3_r_:26 COUPLING_GND 1.2012854e-17
Cg3_19 PW_U_DLY_l_3_r_:28 COUPLING_GND 1.2018126e-17
Cg3_20 PW_U_DLY_l_3_r_:30 COUPLING_GND 2.3754376e-19
Cg3_21 PW_U_DLY_l_3_r_:32 COUPLING_GND 7.1131809e-17
Cg3_22 PW_U_DLY_l_3_r_:33 COUPLING_GND 2.9263059e-18
Cg3_23 PW_U_DLY_l_3_r_:35 COUPLING_GND 2.4648016e-18
Cg3_24 PW_U_DLY_l_3_r_:37 COUPLING_GND 2.3463925e-18
Cg3_25 PW_U_DLY_l_3_r_:38 COUPLING_GND 9.2846549e-18
Cg3_26 PW_U_DLY_l_3_r_:39 COUPLING_GND 2.0782043e-17
Cg3_27 PW_U_DLY_l_3_r_:41 COUPLING_GND 4.2085767e-18
Cg3_28 PW_U_DLY_l_3_r_:43 COUPLING_GND 4.1668231e-18
Cg3_29 PW_U_DLY_l_3_r_:45 COUPLING_GND 4.1662176e-18
Cg3_30 PW_U_DLY_l_3_r_:47 COUPLING_GND 3.94748e-18
Cg3_31 PW_U_DLY_l_3_r_:48 COUPLING_GND 1.0652641e-17
Cg3_32 PW_U_DLY_l_3_r_:55 COUPLING_GND 1.3618956e-17
Cg3_33 PW_U_DLY_l_3_r_:57 COUPLING_GND 1.1427912e-17
Cg3_34 PW_U_DLY_l_3_r_:58 COUPLING_GND 2.2877818e-18
Cg3_35 PW_U_DLY_l_3_r_:59 COUPLING_GND 2.1894999e-17
Cg3_36 PW_U_DLY_l_3_r_:60 COUPLING_GND 2.3575711e-17
Cg3_37 PW_U_DLY_l_3_r_:61 COUPLING_GND 2.1857202e-17
Cg3_38 PW_U_DLY_l_3_r_:62 COUPLING_GND 2.3575711e-17
Cg3_39 PW_U_DLY_l_3_r_:63 COUPLING_GND 2.185944e-17
Cg3_40 PW_U_DLY_l_3_r_:64 COUPLING_GND 2.3575711e-17
Cg3_41 PW_U_DLY_l_3_r_:65 COUPLING_GND 2.2417729e-17
Cg3_42 PW_U_DLY_l_3_r_:66 COUPLING_GND 2.3575711e-17
Cg3_43 PW_U_DLY_l_3_r_:68 COUPLING_GND 2.2910408e-17
Cg3_44 PW_U_DLY_l_3_r_:70 COUPLING_GND 2.2910408e-17
Cg3_45 PW_U_DLY_l_3_r_:72 COUPLING_GND 2.2910408e-17
Cg3_46 PW_U_DLY_l_3_r_:74 COUPLING_GND 2.2977537e-17
R3_1 PW_U_DLY_l_3_r_:F1 PW_U_DLY_l_3_r_:30 86.352203
R3_2 PW_U_DLY_l_3_r_:F2 PW_U_DLY_l_3_r_:19 154.293260
R3_3 PW_U_DLY_l_3_r_:F3 PW_U_DLY_l_3_r_:23 154.293260
R3_4 PW_U_DLY_l_3_r_:F4 PW_U_DLY_l_3_r_:60 98.046303
R3_5 PW_U_DLY_l_3_r_:F4 PW_U_DLY_l_3_r_:19 136.564500
R3_6 PW_U_DLY_l_3_r_:F5 PW_U_DLY_l_3_r_:68 98.046303
R3_7 PW_U_DLY_l_3_r_:F5 PW_U_DLY_l_3_r_:23 136.564500
R3_8 PW_U_DLY_l_3_r_:F6 PW_U_DLY_l_3_r_:20 154.293260
R3_9 PW_U_DLY_l_3_r_:F7 PW_U_DLY_l_3_r_:24 154.293260
R3_10 PW_U_DLY_l_3_r_:F8 PW_U_DLY_l_3_r_:62 98.046303
R3_11 PW_U_DLY_l_3_r_:F8 PW_U_DLY_l_3_r_:20 136.564500
R3_12 PW_U_DLY_l_3_r_:F9 PW_U_DLY_l_3_r_:70 98.046303
R3_13 PW_U_DLY_l_3_r_:F9 PW_U_DLY_l_3_r_:24 136.564500
R3_14 PW_U_DLY_l_3_r_:F10 PW_U_DLY_l_3_r_:21 154.293260
R3_15 PW_U_DLY_l_3_r_:F11 PW_U_DLY_l_3_r_:25 154.293260
R3_16 PW_U_DLY_l_3_r_:F12 PW_U_DLY_l_3_r_:64 98.046303
R3_17 PW_U_DLY_l_3_r_:F12 PW_U_DLY_l_3_r_:21 136.564500
R3_18 PW_U_DLY_l_3_r_:F13 PW_U_DLY_l_3_r_:72 98.046303
R3_19 PW_U_DLY_l_3_r_:F13 PW_U_DLY_l_3_r_:25 136.564500
R3_20 PW_U_DLY_l_3_r_:F14 PW_U_DLY_l_3_r_:22 154.293260
R3_21 PW_U_DLY_l_3_r_:F15 PW_U_DLY_l_3_r_:26 154.293260
R3_22 PW_U_DLY_l_3_r_:F16 PW_U_DLY_l_3_r_:66 98.046303
R3_23 PW_U_DLY_l_3_r_:F16 PW_U_DLY_l_3_r_:22 136.564500
R3_24 PW_U_DLY_l_3_r_:F17 PW_U_DLY_l_3_r_:74 98.046303
R3_25 PW_U_DLY_l_3_r_:F17 PW_U_DLY_l_3_r_:26 136.564500
R3_26 PW_U_DLY_l_3_r_:F18 PW_U_DLY_l_3_r_:29 0.001000
R3_27 PW_U_DLY_l_3_r_:27 PW_U_DLY_l_3_r_:28 0.001000
R3_28 PW_U_DLY_l_3_r_:28 PW_U_DLY_l_3_r_:29 235.505310
R3_29 PW_U_DLY_l_3_r_:28 PW_U_DLY_l_3_r_:58 21.458841
R3_30 PW_U_DLY_l_3_r_:30 PW_U_DLY_l_3_r_:31 23.058998
R3_31 PW_U_DLY_l_3_r_:31 PW_U_DLY_l_3_r_:34 25.625824
R3_32 PW_U_DLY_l_3_r_:31 PW_U_DLY_l_3_r_:36 26.946371
R3_33 PW_U_DLY_l_3_r_:32 PW_U_DLY_l_3_r_:33 33.084721
R3_34 PW_U_DLY_l_3_r_:32 PW_U_DLY_l_3_r_:34 49.985462
R3_35 PW_U_DLY_l_3_r_:33 PW_U_DLY_l_3_r_:40 7.445394
R3_36 PW_U_DLY_l_3_r_:34 PW_U_DLY_l_3_r_:35 33.084721
R3_37 PW_U_DLY_l_3_r_:35 PW_U_DLY_l_3_r_:42 7.445394
R3_38 PW_U_DLY_l_3_r_:36 PW_U_DLY_l_3_r_:37 33.084721
R3_39 PW_U_DLY_l_3_r_:36 PW_U_DLY_l_3_r_:38 47.107899
R3_40 PW_U_DLY_l_3_r_:37 PW_U_DLY_l_3_r_:44 7.445394
R3_41 PW_U_DLY_l_3_r_:38 PW_U_DLY_l_3_r_:39 33.084721
R3_42 PW_U_DLY_l_3_r_:39 PW_U_DLY_l_3_r_:46 3.289364
R3_43 PW_U_DLY_l_3_r_:40 PW_U_DLY_l_3_r_:41 47.459854
R3_44 PW_U_DLY_l_3_r_:41 PW_U_DLY_l_3_r_:50 40.303299
R3_45 PW_U_DLY_l_3_r_:42 PW_U_DLY_l_3_r_:43 47.459854
R3_46 PW_U_DLY_l_3_r_:43 PW_U_DLY_l_3_r_:51 40.303299
R3_47 PW_U_DLY_l_3_r_:44 PW_U_DLY_l_3_r_:45 47.459854
R3_48 PW_U_DLY_l_3_r_:45 PW_U_DLY_l_3_r_:52 40.303299
R3_49 PW_U_DLY_l_3_r_:46 PW_U_DLY_l_3_r_:47 47.459854
R3_50 PW_U_DLY_l_3_r_:46 PW_U_DLY_l_3_r_:48 58.645958
R3_51 PW_U_DLY_l_3_r_:47 PW_U_DLY_l_3_r_:53 2.312668
R3_52 PW_U_DLY_l_3_r_:48 PW_U_DLY_l_3_r_:49 47.459854
R3_53 PW_U_DLY_l_3_r_:49 PW_U_DLY_l_3_r_:55 5.910523
R3_54 PW_U_DLY_l_3_r_:50 PW_U_DLY_l_3_r_:67 2.570810
R3_55 PW_U_DLY_l_3_r_:51 PW_U_DLY_l_3_r_:69 2.570810
R3_56 PW_U_DLY_l_3_r_:52 PW_U_DLY_l_3_r_:71 2.570810
R3_57 PW_U_DLY_l_3_r_:53 PW_U_DLY_l_3_r_:54 40.303299
R3_58 PW_U_DLY_l_3_r_:54 PW_U_DLY_l_3_r_:73 2.570810
R3_59 PW_U_DLY_l_3_r_:55 PW_U_DLY_l_3_r_:56 40.303299
R3_60 PW_U_DLY_l_3_r_:56 PW_U_DLY_l_3_r_:57 7.600685
R3_61 PW_U_DLY_l_3_r_:57 PW_U_DLY_l_3_r_:58 46.797001
R3_62 PW_U_DLY_l_3_r_:59 PW_U_DLY_l_3_r_:60 137.730740
R3_63 PW_U_DLY_l_3_r_:59 PW_U_DLY_l_3_r_:67 21.109489
R3_64 PW_U_DLY_l_3_r_:61 PW_U_DLY_l_3_r_:62 137.730740
R3_65 PW_U_DLY_l_3_r_:61 PW_U_DLY_l_3_r_:69 21.109489
R3_66 PW_U_DLY_l_3_r_:63 PW_U_DLY_l_3_r_:64 137.730740
R3_67 PW_U_DLY_l_3_r_:63 PW_U_DLY_l_3_r_:71 21.109489
R3_68 PW_U_DLY_l_3_r_:65 PW_U_DLY_l_3_r_:66 137.730740
R3_69 PW_U_DLY_l_3_r_:65 PW_U_DLY_l_3_r_:73 21.109489
R3_70 PW_U_DLY_l_3_r_:67 PW_U_DLY_l_3_r_:68 137.730740
R3_71 PW_U_DLY_l_3_r_:69 PW_U_DLY_l_3_r_:70 137.730740
R3_72 PW_U_DLY_l_3_r_:71 PW_U_DLY_l_3_r_:72 137.730740
R3_73 PW_U_DLY_l_3_r_:73 PW_U_DLY_l_3_r_:74 137.730740
RxREFCLK REFCLK REFCLK:F1 0.001000
C4_1 REFCLK:F1 PW_U_DLY_l_3_r_:F1 1.2434948e-18
C4_2 REFCLK:19 PW_U_DLY_l_3_r_:F1 9.5476032e-18
C4_3 REFCLK:21 PW_U_DLY_l_3_r_:F1 3.3255556e-18
C4_4 REFCLK:22 PW_U_DLY_l_3_r_:F1 8.5172984e-18
C4_5 REFCLK:23 PW_U_DLY_l_3_r_:F1 1.0527718e-18
C4_6 REFCLK:F11 PW_U_DLY_l_3_r_:F18 2.001398e-21
C4_7 REFCLK:17 PW_U_DLY_l_3_r_:28 2.6070086e-24
C4_8 REFCLK:19 PW_U_DLY_l_3_r_:30 1.7970806e-19
C4_9 REFCLK:21 PW_U_DLY_l_3_r_:30 1.8112738e-19
C4_10 REFCLK:24 PW_U_DLY_l_3_r_:30 8.3267712e-19
C4_11 REFCLK:19 PW_U_DLY_l_3_r_:32 1.2124035e-19
C4_12 REFCLK:22 PW_U_DLY_l_3_r_:32 1.8779986e-18
C4_13 REFCLK:23 PW_U_DLY_l_3_r_:32 7.3010063e-19
C4_14 REFCLK:22 PW_U_DLY_l_3_r_:37 9.4176355e-20
C4_15 REFCLK:24 PW_U_DLY_l_3_r_:37 9.4176355e-20
C4_16 REFCLK:24 PW_U_DLY_l_3_r_:38 1.5589665e-18
C4_17 REFCLK:23 PW_U_DLY_l_3_r_:39 2.9083301e-19
C4_18 REFCLK:26 PW_U_DLY_l_3_r_:39 3.4210983e-19
C4_19 REFCLK:22 PW_U_DLY_l_3_r_:45 9.955962e-21
C4_20 REFCLK:24 PW_U_DLY_l_3_r_:45 9.955962e-21
C4_21 REFCLK:26 PW_U_DLY_l_3_r_:55 6.621111e-20
C4_22 REFCLK:30 PW_U_DLY_l_3_r_:55 6.2628694e-20
C4_23 REFCLK:35 PW_U_DLY_l_3_r_:55 1.7223157e-19
C4_24 REFCLK:30 PW_U_DLY_l_3_r_:57 1.7633431e-20
C4_25 REFCLK:35 PW_U_DLY_l_3_r_:57 1.4511369e-18
C4_26 REFCLK:36 PW_U_DLY_l_3_r_:57 1.6465199e-19
C4_27 REFCLK:35 PW_U_DLY_l_3_r_:58 6.1935407e-21
C4_28 REFCLK:36 PW_U_DLY_l_3_r_:58 1.4853143e-23
Cg4_29 REFCLK:F1 COUPLING_GND 7.5079875e-19
Cg4_30 REFCLK:F2 COUPLING_GND 1.8880712e-17
Cg4_31 REFCLK:F3 COUPLING_GND 1.867251e-17
Cg4_32 REFCLK:F4 COUPLING_GND 1.8426782e-17
Cg4_33 REFCLK:F5 COUPLING_GND 1.8474962e-17
Cg4_34 REFCLK:F6 COUPLING_GND 4.1700197e-18
Cg4_35 REFCLK:F11 COUPLING_GND 2.3937894e-17
Cg4_36 REFCLK:12 COUPLING_GND 1.1203964e-17
Cg4_37 REFCLK:13 COUPLING_GND 1.1045262e-17
Cg4_38 REFCLK:14 COUPLING_GND 1.0883478e-17
Cg4_39 REFCLK:15 COUPLING_GND 1.0900326e-17
Cg4_40 REFCLK:17 COUPLING_GND 1.2029023e-17
Cg4_41 REFCLK:19 COUPLING_GND 2.1334945e-17
Cg4_42 REFCLK:21 COUPLING_GND 1.6400753e-17
Cg4_43 REFCLK:22 COUPLING_GND 6.562446e-17
Cg4_44 REFCLK:23 COUPLING_GND 4.2216155e-17
Cg4_45 REFCLK:24 COUPLING_GND 1.7192944e-17
Cg4_46 REFCLK:26 COUPLING_GND 1.0829921e-17
Cg4_47 REFCLK:28 COUPLING_GND 1.9276588e-18
Cg4_48 REFCLK:30 COUPLING_GND 1.4816712e-17
Cg4_49 REFCLK:35 COUPLING_GND 1.3611971e-17
Cg4_50 REFCLK:36 COUPLING_GND 2.2815695e-18
Cg4_51 REFCLK:37 COUPLING_GND 1.5020228e-17
Cg4_52 REFCLK:38 COUPLING_GND 2.3245393e-17
Cg4_53 REFCLK:40 COUPLING_GND 2.26245e-17
Cg4_54 REFCLK:42 COUPLING_GND 2.2688079e-17
Cg4_55 REFCLK:44 COUPLING_GND 2.2624877e-17
Cg4_56 REFCLK:46 COUPLING_GND 2.2619411e-17
R4_1 REFCLK:F1 REFCLK:19 14.426140
R4_2 REFCLK:F2 REFCLK:15 191.955890
R4_3 REFCLK:F3 REFCLK:14 191.955890
R4_4 REFCLK:F4 REFCLK:13 191.955890
R4_5 REFCLK:F5 REFCLK:12 191.955890
R4_6 REFCLK:F6 REFCLK:46 78.412346
R4_7 REFCLK:F7 REFCLK:44 78.412346
R4_8 REFCLK:F7 REFCLK:15 117.618520
R4_9 REFCLK:F8 REFCLK:42 78.412346
R4_10 REFCLK:F8 REFCLK:14 117.618520
R4_11 REFCLK:F9 REFCLK:40 78.412346
R4_12 REFCLK:F9 REFCLK:13 117.618520
R4_13 REFCLK:F10 REFCLK:38 78.412346
R4_14 REFCLK:F10 REFCLK:12 117.618520
R4_15 REFCLK:F11 REFCLK:18 0.001000
R4_16 REFCLK:16 REFCLK:17 0.001000
R4_17 REFCLK:17 REFCLK:18 235.505310
R4_18 REFCLK:17 REFCLK:36 21.458841
R4_19 REFCLK:19 REFCLK:20 23.058998
R4_20 REFCLK:20 REFCLK:21 6.977508
R4_21 REFCLK:21 REFCLK:22 33.084721
R4_22 REFCLK:22 REFCLK:27 141.100590
R4_23 REFCLK:23 REFCLK:24 33.084721
R4_24 REFCLK:23 REFCLK:25 33.987179
R4_25 REFCLK:24 REFCLK:27 2.555710
R4_26 REFCLK:25 REFCLK:26 33.084721
R4_27 REFCLK:26 REFCLK:29 19.071238
R4_28 REFCLK:27 REFCLK:28 47.459854
R4_29 REFCLK:28 REFCLK:31 2.425635
R4_30 REFCLK:29 REFCLK:30 47.459854
R4_31 REFCLK:30 REFCLK:33 5.616742
R4_32 REFCLK:31 REFCLK:32 40.101128
R4_33 REFCLK:32 REFCLK:41 2.838657
R4_34 REFCLK:32 REFCLK:43 2.838657
R4_35 REFCLK:33 REFCLK:34 40.303299
R4_36 REFCLK:34 REFCLK:35 7.161142
R4_37 REFCLK:35 REFCLK:36 46.797001
R4_38 REFCLK:37 REFCLK:38 137.730740
R4_39 REFCLK:37 REFCLK:39 5.002032
R4_40 REFCLK:39 REFCLK:40 137.730740
R4_41 REFCLK:39 REFCLK:41 5.273948
R4_42 REFCLK:41 REFCLK:42 137.730740
R4_43 REFCLK:43 REFCLK:44 137.730740
R4_44 REFCLK:43 REFCLK:45 5.677315
R4_45 REFCLK:45 REFCLK:46 137.730740
RxPW_U_DLY_l_2_r_ PW_U_DLY_l_2_r_ PW_U_DLY_l_2_r_:F1 0.001000
C5_1 PW_U_DLY_l_2_r_:F1 PW_U_DLY_l_3_r_:F1 2.2426137e-17
C5_2 PW_U_DLY_l_2_r_:20 PW_U_DLY_l_3_r_:F1 2.7587298e-19
C5_3 PW_U_DLY_l_2_r_:30 PW_U_DLY_l_3_r_:F1 1.8129567e-17
C5_4 PW_U_DLY_l_2_r_:32 PW_U_DLY_l_3_r_:F1 1.9496908e-18
C5_5 PW_U_DLY_l_2_r_:33 PW_U_DLY_l_3_r_:F1 3.0971623e-18
C5_6 PW_U_DLY_l_2_r_:34 PW_U_DLY_l_3_r_:F1 3.4390187e-18
C5_7 PW_U_DLY_l_2_r_:38 PW_U_DLY_l_3_r_:F1 2.6447927e-19
C5_8 PW_U_DLY_l_2_r_:40 PW_U_DLY_l_3_r_:F1 3.7396249e-19
C5_9 PW_U_DLY_l_2_r_:41 PW_U_DLY_l_3_r_:F1 4.3435099e-19
C5_10 PW_U_DLY_l_2_r_:44 PW_U_DLY_l_3_r_:F1 6.101764e-19
C5_11 PW_U_DLY_l_2_r_:46 PW_U_DLY_l_3_r_:F1 3.2698044e-19
C5_12 PW_U_DLY_l_2_r_:58 PW_U_DLY_l_3_r_:F1 1.7006222e-19
C5_13 PW_U_DLY_l_2_r_:68 PW_U_DLY_l_3_r_:F1 7.8836557e-21
C5_14 PW_U_DLY_l_2_r_:30 PW_U_DLY_l_3_r_:30 1.4055804e-17
C5_15 PW_U_DLY_l_2_r_:32 PW_U_DLY_l_3_r_:30 9.9421309e-19
C5_16 PW_U_DLY_l_2_r_:42 PW_U_DLY_l_3_r_:30 8.2258582e-20
C5_17 PW_U_DLY_l_2_r_:44 PW_U_DLY_l_3_r_:30 4.733599e-19
C5_18 PW_U_DLY_l_2_r_:68 PW_U_DLY_l_3_r_:30 7.8836557e-21
C5_19 PW_U_DLY_l_2_r_:34 PW_U_DLY_l_3_r_:32 1.8394985e-18
C5_20 PW_U_DLY_l_2_r_:40 PW_U_DLY_l_3_r_:32 6.2978151e-19
C5_21 PW_U_DLY_l_2_r_:41 PW_U_DLY_l_3_r_:32 8.8759097e-20
C5_22 PW_U_DLY_l_2_r_:44 PW_U_DLY_l_3_r_:32 8.5446344e-21
C5_23 PW_U_DLY_l_2_r_:48 PW_U_DLY_l_3_r_:32 4.0422273e-21
C5_24 PW_U_DLY_l_2_r_:36 PW_U_DLY_l_3_r_:38 1.2073806e-21
C5_25 PW_U_DLY_l_2_r_:44 PW_U_DLY_l_3_r_:38 8.5446344e-21
C5_26 PW_U_DLY_l_2_r_:48 PW_U_DLY_l_3_r_:38 4.0422273e-21
C5_27 PW_U_DLY_l_2_r_:34 PW_U_DLY_l_3_r_:39 1.9243768e-19
C5_28 PW_U_DLY_l_2_r_:36 PW_U_DLY_l_3_r_:48 8.4111162e-22
C5_29 PW_U_DLY_l_2_r_:41 PW_U_DLY_l_3_r_:61 2.4273601e-20
C5_30 PW_U_DLY_l_2_r_:49 PW_U_DLY_l_3_r_:61 2.4273601e-20
C5_31 PW_U_DLY_l_2_r_:41 PW_U_DLY_l_3_r_:63 2.6131395e-20
C5_32 PW_U_DLY_l_2_r_:49 PW_U_DLY_l_3_r_:63 2.6131395e-20
C5_33 PW_U_DLY_l_2_r_:F1 REFCLK:F1 9.8514019e-20
C5_34 PW_U_DLY_l_2_r_:30 REFCLK:19 1.5615152e-18
C5_35 PW_U_DLY_l_2_r_:32 REFCLK:19 2.6096406e-19
C5_36 PW_U_DLY_l_2_r_:33 REFCLK:19 2.795627e-19
C5_37 PW_U_DLY_l_2_r_:34 REFCLK:19 1.0540606e-18
C5_38 PW_U_DLY_l_2_r_:38 REFCLK:19 9.2752008e-20
C5_39 PW_U_DLY_l_2_r_:41 REFCLK:19 1.0881633e-19
C5_40 PW_U_DLY_l_2_r_:46 REFCLK:19 1.0099986e-19
C5_41 PW_U_DLY_l_2_r_:58 REFCLK:19 8.5912697e-20
C5_42 PW_U_DLY_l_2_r_:30 REFCLK:21 1.6259848e-18
C5_43 PW_U_DLY_l_2_r_:32 REFCLK:21 1.9271269e-18
C5_44 PW_U_DLY_l_2_r_:33 REFCLK:21 3.877876e-19
C5_45 PW_U_DLY_l_2_r_:34 REFCLK:21 4.0257497e-19
C5_46 PW_U_DLY_l_2_r_:41 REFCLK:21 1.1149879e-19
C5_47 PW_U_DLY_l_2_r_:46 REFCLK:21 3.890402e-20
C5_48 PW_U_DLY_l_2_r_:30 REFCLK:22 7.2166504e-19
C5_49 PW_U_DLY_l_2_r_:32 REFCLK:22 8.2737588e-19
C5_50 PW_U_DLY_l_2_r_:33 REFCLK:22 5.444545e-18
C5_51 PW_U_DLY_l_2_r_:34 REFCLK:22 2.4638741e-18
C5_52 PW_U_DLY_l_2_r_:38 REFCLK:22 4.3437748e-20
C5_53 PW_U_DLY_l_2_r_:40 REFCLK:22 1.0291475e-19
C5_54 PW_U_DLY_l_2_r_:41 REFCLK:22 2.9556594e-18
C5_55 PW_U_DLY_l_2_r_:44 REFCLK:22 2.2815012e-18
C5_56 PW_U_DLY_l_2_r_:46 REFCLK:22 5.8789484e-19
C5_57 PW_U_DLY_l_2_r_:53 REFCLK:22 2.7508786e-19
C5_58 PW_U_DLY_l_2_r_:68 REFCLK:22 2.9867146e-20
C5_59 PW_U_DLY_l_2_r_:69 REFCLK:22 5.5169814e-19
C5_60 PW_U_DLY_l_2_r_:34 REFCLK:23 2.6904988e-19
C5_61 PW_U_DLY_l_2_r_:42 REFCLK:24 6.4248343e-19
C5_62 PW_U_DLY_l_2_r_:44 REFCLK:24 1.9766558e-18
C5_63 PW_U_DLY_l_2_r_:49 REFCLK:24 2.6602275e-18
C5_64 PW_U_DLY_l_2_r_:53 REFCLK:24 2.7508786e-19
C5_65 PW_U_DLY_l_2_r_:68 REFCLK:24 2.9867146e-20
C5_66 PW_U_DLY_l_2_r_:34 REFCLK:26 1.2418779e-19
Cg5_67 PW_U_DLY_l_2_r_:F1 COUPLING_GND 1.9899602e-18
Cg5_68 PW_U_DLY_l_2_r_:F2 COUPLING_GND 1.8511141e-17
Cg5_69 PW_U_DLY_l_2_r_:F3 COUPLING_GND 1.8829036e-17
Cg5_70 PW_U_DLY_l_2_r_:F6 COUPLING_GND 1.9668805e-17
Cg5_71 PW_U_DLY_l_2_r_:F7 COUPLING_GND 1.8829791e-17
Cg5_72 PW_U_DLY_l_2_r_:F10 COUPLING_GND 1.8511141e-17
Cg5_73 PW_U_DLY_l_2_r_:F11 COUPLING_GND 1.8829036e-17
Cg5_74 PW_U_DLY_l_2_r_:F14 COUPLING_GND 1.8511141e-17
Cg5_75 PW_U_DLY_l_2_r_:F15 COUPLING_GND 1.8829036e-17
Cg5_76 PW_U_DLY_l_2_r_:F18 COUPLING_GND 1.8318107e-17
Cg5_77 PW_U_DLY_l_2_r_:19 COUPLING_GND 1.1576644e-17
Cg5_78 PW_U_DLY_l_2_r_:20 COUPLING_GND 1.2217119e-17
Cg5_79 PW_U_DLY_l_2_r_:21 COUPLING_GND 1.158442e-17
Cg5_80 PW_U_DLY_l_2_r_:22 COUPLING_GND 1.158442e-17
Cg5_81 PW_U_DLY_l_2_r_:23 COUPLING_GND 1.2867378e-17
Cg5_82 PW_U_DLY_l_2_r_:24 COUPLING_GND 1.2866627e-17
Cg5_83 PW_U_DLY_l_2_r_:25 COUPLING_GND 1.2867378e-17
Cg5_84 PW_U_DLY_l_2_r_:26 COUPLING_GND 1.2867379e-17
Cg5_85 PW_U_DLY_l_2_r_:28 COUPLING_GND 1.7069994e-17
Cg5_86 PW_U_DLY_l_2_r_:30 COUPLING_GND 1.1117623e-17
Cg5_87 PW_U_DLY_l_2_r_:32 COUPLING_GND 1.3070675e-17
Cg5_88 PW_U_DLY_l_2_r_:33 COUPLING_GND 1.8727892e-17
Cg5_89 PW_U_DLY_l_2_r_:34 COUPLING_GND 7.381327e-17
Cg5_90 PW_U_DLY_l_2_r_:36 COUPLING_GND 2.0030257e-18
Cg5_91 PW_U_DLY_l_2_r_:38 COUPLING_GND 2.5917296e-17
Cg5_92 PW_U_DLY_l_2_r_:40 COUPLING_GND 2.356626e-17
Cg5_93 PW_U_DLY_l_2_r_:41 COUPLING_GND 4.7586198e-17
Cg5_94 PW_U_DLY_l_2_r_:42 COUPLING_GND 2.5554221e-18
Cg5_95 PW_U_DLY_l_2_r_:44 COUPLING_GND 3.8157602e-18
Cg5_96 PW_U_DLY_l_2_r_:46 COUPLING_GND 4.8288976e-18
Cg5_97 PW_U_DLY_l_2_r_:48 COUPLING_GND 1.9619754e-18
Cg5_98 PW_U_DLY_l_2_r_:49 COUPLING_GND 2.3832142e-17
Cg5_99 PW_U_DLY_l_2_r_:51 COUPLING_GND 9.5606786e-19
Cg5_100 PW_U_DLY_l_2_r_:53 COUPLING_GND 7.9192928e-19
Cg5_101 PW_U_DLY_l_2_r_:55 COUPLING_GND 8.7954818e-19
Cg5_102 PW_U_DLY_l_2_r_:57 COUPLING_GND 4.3348876e-19
Cg5_103 PW_U_DLY_l_2_r_:58 COUPLING_GND 2.6455726e-17
Cg5_104 PW_U_DLY_l_2_r_:64 COUPLING_GND 3.2339255e-17
Cg5_105 PW_U_DLY_l_2_r_:65 COUPLING_GND 1.5527493e-18
Cg5_106 PW_U_DLY_l_2_r_:66 COUPLING_GND 2.1093829e-17
Cg5_107 PW_U_DLY_l_2_r_:67 COUPLING_GND 2.5440689e-17
Cg5_108 PW_U_DLY_l_2_r_:68 COUPLING_GND 1.2893397e-17
Cg5_109 PW_U_DLY_l_2_r_:69 COUPLING_GND 2.4762692e-17
Cg5_110 PW_U_DLY_l_2_r_:70 COUPLING_GND 1.301585e-17
Cg5_111 PW_U_DLY_l_2_r_:71 COUPLING_GND 2.4682848e-17
Cg5_112 PW_U_DLY_l_2_r_:72 COUPLING_GND 1.6856821e-17
Cg5_113 PW_U_DLY_l_2_r_:73 COUPLING_GND 2.3123323e-17
Cg5_114 PW_U_DLY_l_2_r_:75 COUPLING_GND 2.2821356e-17
Cg5_115 PW_U_DLY_l_2_r_:77 COUPLING_GND 2.273715e-17
Cg5_116 PW_U_DLY_l_2_r_:79 COUPLING_GND 2.2737142e-17
Cg5_117 PW_U_DLY_l_2_r_:81 COUPLING_GND 2.2729931e-17
R5_1 PW_U_DLY_l_2_r_:F1 PW_U_DLY_l_2_r_:30 18.914566
R5_2 PW_U_DLY_l_2_r_:F2 PW_U_DLY_l_2_r_:19 154.293260
R5_3 PW_U_DLY_l_2_r_:F3 PW_U_DLY_l_2_r_:23 154.293260
R5_4 PW_U_DLY_l_2_r_:F4 PW_U_DLY_l_2_r_:67 98.046303
R5_5 PW_U_DLY_l_2_r_:F4 PW_U_DLY_l_2_r_:19 136.564500
R5_6 PW_U_DLY_l_2_r_:F5 PW_U_DLY_l_2_r_:75 98.046303
R5_7 PW_U_DLY_l_2_r_:F5 PW_U_DLY_l_2_r_:23 136.564500
R5_8 PW_U_DLY_l_2_r_:F6 PW_U_DLY_l_2_r_:20 154.293260
R5_9 PW_U_DLY_l_2_r_:F7 PW_U_DLY_l_2_r_:24 154.293260
R5_10 PW_U_DLY_l_2_r_:F8 PW_U_DLY_l_2_r_:69 98.046303
R5_11 PW_U_DLY_l_2_r_:F8 PW_U_DLY_l_2_r_:20 136.564500
R5_12 PW_U_DLY_l_2_r_:F9 PW_U_DLY_l_2_r_:77 98.046303
R5_13 PW_U_DLY_l_2_r_:F9 PW_U_DLY_l_2_r_:24 136.564500
R5_14 PW_U_DLY_l_2_r_:F10 PW_U_DLY_l_2_r_:21 154.293260
R5_15 PW_U_DLY_l_2_r_:F11 PW_U_DLY_l_2_r_:25 154.293260
R5_16 PW_U_DLY_l_2_r_:F12 PW_U_DLY_l_2_r_:71 98.046303
R5_17 PW_U_DLY_l_2_r_:F12 PW_U_DLY_l_2_r_:21 136.564500
R5_18 PW_U_DLY_l_2_r_:F13 PW_U_DLY_l_2_r_:79 98.046303
R5_19 PW_U_DLY_l_2_r_:F13 PW_U_DLY_l_2_r_:25 136.564500
R5_20 PW_U_DLY_l_2_r_:F14 PW_U_DLY_l_2_r_:22 154.293260
R5_21 PW_U_DLY_l_2_r_:F15 PW_U_DLY_l_2_r_:26 154.293260
R5_22 PW_U_DLY_l_2_r_:F16 PW_U_DLY_l_2_r_:73 98.046303
R5_23 PW_U_DLY_l_2_r_:F16 PW_U_DLY_l_2_r_:22 136.564500
R5_24 PW_U_DLY_l_2_r_:F17 PW_U_DLY_l_2_r_:81 98.046303
R5_25 PW_U_DLY_l_2_r_:F17 PW_U_DLY_l_2_r_:26 136.564500
R5_26 PW_U_DLY_l_2_r_:F18 PW_U_DLY_l_2_r_:29 0.001000
R5_27 PW_U_DLY_l_2_r_:27 PW_U_DLY_l_2_r_:28 0.001000
R5_28 PW_U_DLY_l_2_r_:28 PW_U_DLY_l_2_r_:29 235.505310
R5_29 PW_U_DLY_l_2_r_:28 PW_U_DLY_l_2_r_:65 21.458841
R5_30 PW_U_DLY_l_2_r_:30 PW_U_DLY_l_2_r_:31 23.058998
R5_31 PW_U_DLY_l_2_r_:31 PW_U_DLY_l_2_r_:32 3.475134
R5_32 PW_U_DLY_l_2_r_:32 PW_U_DLY_l_2_r_:33 33.084721
R5_33 PW_U_DLY_l_2_r_:33 PW_U_DLY_l_2_r_:42 54.933113
R5_34 PW_U_DLY_l_2_r_:34 PW_U_DLY_l_2_r_:35 33.084721
R5_35 PW_U_DLY_l_2_r_:34 PW_U_DLY_l_2_r_:36 64.582077
R5_36 PW_U_DLY_l_2_r_:35 PW_U_DLY_l_2_r_:46 6.300936
R5_37 PW_U_DLY_l_2_r_:36 PW_U_DLY_l_2_r_:37 33.084721
R5_38 PW_U_DLY_l_2_r_:37 PW_U_DLY_l_2_r_:38 42.945778
R5_39 PW_U_DLY_l_2_r_:37 PW_U_DLY_l_2_r_:56 1.482904
R5_40 PW_U_DLY_l_2_r_:38 PW_U_DLY_l_2_r_:39 47.459854
R5_41 PW_U_DLY_l_2_r_:39 PW_U_DLY_l_2_r_:58 7.726134
R5_42 PW_U_DLY_l_2_r_:40 PW_U_DLY_l_2_r_:41 47.459854
R5_43 PW_U_DLY_l_2_r_:40 PW_U_DLY_l_2_r_:50 8.498272
R5_44 PW_U_DLY_l_2_r_:41 PW_U_DLY_l_2_r_:43 19.056061
R5_45 PW_U_DLY_l_2_r_:42 PW_U_DLY_l_2_r_:43 47.459854
R5_46 PW_U_DLY_l_2_r_:43 PW_U_DLY_l_2_r_:45 3.311201
R5_47 PW_U_DLY_l_2_r_:44 PW_U_DLY_l_2_r_:45 47.459854
R5_48 PW_U_DLY_l_2_r_:44 PW_U_DLY_l_2_r_:52 7.918330
R5_49 PW_U_DLY_l_2_r_:45 PW_U_DLY_l_2_r_:47 13.469998
R5_50 PW_U_DLY_l_2_r_:46 PW_U_DLY_l_2_r_:47 47.459854
R5_51 PW_U_DLY_l_2_r_:47 PW_U_DLY_l_2_r_:49 8.897263
R5_52 PW_U_DLY_l_2_r_:48 PW_U_DLY_l_2_r_:54 7.641434
R5_53 PW_U_DLY_l_2_r_:48 PW_U_DLY_l_2_r_:49 47.459854
R5_54 PW_U_DLY_l_2_r_:50 PW_U_DLY_l_2_r_:51 47.459854
R5_55 PW_U_DLY_l_2_r_:51 PW_U_DLY_l_2_r_:60 40.101128
R5_56 PW_U_DLY_l_2_r_:52 PW_U_DLY_l_2_r_:53 47.459854
R5_57 PW_U_DLY_l_2_r_:53 PW_U_DLY_l_2_r_:61 40.101128
R5_58 PW_U_DLY_l_2_r_:54 PW_U_DLY_l_2_r_:55 47.459854
R5_59 PW_U_DLY_l_2_r_:55 PW_U_DLY_l_2_r_:62 40.101128
R5_60 PW_U_DLY_l_2_r_:56 PW_U_DLY_l_2_r_:57 47.459854
R5_61 PW_U_DLY_l_2_r_:57 PW_U_DLY_l_2_r_:63 40.101128
R5_62 PW_U_DLY_l_2_r_:58 PW_U_DLY_l_2_r_:59 40.303299
R5_63 PW_U_DLY_l_2_r_:59 PW_U_DLY_l_2_r_:64 6.692504
R5_64 PW_U_DLY_l_2_r_:60 PW_U_DLY_l_2_r_:66 3.422409
R5_65 PW_U_DLY_l_2_r_:60 PW_U_DLY_l_2_r_:74 17.021917
R5_66 PW_U_DLY_l_2_r_:61 PW_U_DLY_l_2_r_:68 3.422409
R5_67 PW_U_DLY_l_2_r_:61 PW_U_DLY_l_2_r_:76 17.021917
R5_68 PW_U_DLY_l_2_r_:62 PW_U_DLY_l_2_r_:70 3.422409
R5_69 PW_U_DLY_l_2_r_:62 PW_U_DLY_l_2_r_:78 17.021917
R5_70 PW_U_DLY_l_2_r_:63 PW_U_DLY_l_2_r_:72 3.221996
R5_71 PW_U_DLY_l_2_r_:63 PW_U_DLY_l_2_r_:80 14.815027
R5_72 PW_U_DLY_l_2_r_:64 PW_U_DLY_l_2_r_:65 46.797001
R5_73 PW_U_DLY_l_2_r_:66 PW_U_DLY_l_2_r_:67 137.730740
R5_74 PW_U_DLY_l_2_r_:68 PW_U_DLY_l_2_r_:69 137.730740
R5_75 PW_U_DLY_l_2_r_:70 PW_U_DLY_l_2_r_:71 137.730740
R5_76 PW_U_DLY_l_2_r_:72 PW_U_DLY_l_2_r_:73 137.730740
R5_77 PW_U_DLY_l_2_r_:74 PW_U_DLY_l_2_r_:75 137.730740
R5_78 PW_U_DLY_l_2_r_:76 PW_U_DLY_l_2_r_:77 137.730740
R5_79 PW_U_DLY_l_2_r_:78 PW_U_DLY_l_2_r_:79 137.730740
R5_80 PW_U_DLY_l_2_r_:80 PW_U_DLY_l_2_r_:81 137.730740
RxPW_U_DLY_l_1_r_ PW_U_DLY_l_1_r_ PW_U_DLY_l_1_r_:F1 0.001000
C6_1 PW_U_DLY_l_1_r_:F1 PW_U_DLY_l_3_r_:F1 2.4968913e-17
C6_2 PW_U_DLY_l_1_r_:31 PW_U_DLY_l_3_r_:F1 1.1385807e-18
C6_3 PW_U_DLY_l_1_r_:33 PW_U_DLY_l_3_r_:F1 4.1231324e-19
C6_4 PW_U_DLY_l_1_r_:34 PW_U_DLY_l_3_r_:F1 6.612756e-18
C6_5 PW_U_DLY_l_1_r_:45 PW_U_DLY_l_3_r_:F1 1.4531426e-20
C6_6 PW_U_DLY_l_1_r_:46 PW_U_DLY_l_3_r_:F1 1.150478e-19
C6_7 PW_U_DLY_l_1_r_:F18 PW_U_DLY_l_3_r_:F18 2.001398e-21
C6_8 PW_U_DLY_l_1_r_:28 PW_U_DLY_l_3_r_:28 2.6070086e-24
C6_9 PW_U_DLY_l_1_r_:30 PW_U_DLY_l_3_r_:30 1.5605239e-17
C6_10 PW_U_DLY_l_1_r_:31 PW_U_DLY_l_3_r_:30 1.0317779e-18
C6_11 PW_U_DLY_l_1_r_:33 PW_U_DLY_l_3_r_:30 4.1231324e-19
C6_12 PW_U_DLY_l_1_r_:40 PW_U_DLY_l_3_r_:30 2.0517562e-18
C6_13 PW_U_DLY_l_1_r_:45 PW_U_DLY_l_3_r_:30 1.4531426e-20
C6_14 PW_U_DLY_l_1_r_:F1 PW_U_DLY_l_3_r_:32 1.1317542e-18
C6_15 PW_U_DLY_l_1_r_:31 PW_U_DLY_l_3_r_:32 3.481278e-19
C6_16 PW_U_DLY_l_1_r_:33 PW_U_DLY_l_3_r_:32 7.5222554e-19
C6_17 PW_U_DLY_l_1_r_:34 PW_U_DLY_l_3_r_:32 9.6766427e-17
C6_18 PW_U_DLY_l_1_r_:42 PW_U_DLY_l_3_r_:32 7.5612916e-19
C6_19 PW_U_DLY_l_1_r_:43 PW_U_DLY_l_3_r_:32 8.1377496e-21
C6_20 PW_U_DLY_l_1_r_:45 PW_U_DLY_l_3_r_:32 6.3024866e-21
C6_21 PW_U_DLY_l_1_r_:46 PW_U_DLY_l_3_r_:32 2.0881941e-18
C6_22 PW_U_DLY_l_1_r_:47 PW_U_DLY_l_3_r_:32 2.2154905e-20
C6_23 PW_U_DLY_l_1_r_:52 PW_U_DLY_l_3_r_:32 5.7906981e-21
C6_24 PW_U_DLY_l_1_r_:54 PW_U_DLY_l_3_r_:32 1.4476745e-20
C6_25 PW_U_DLY_l_1_r_:34 PW_U_DLY_l_3_r_:35 5.1814935e-19
C6_26 PW_U_DLY_l_1_r_:40 PW_U_DLY_l_3_r_:35 5.1814935e-19
C6_27 PW_U_DLY_l_1_r_:34 PW_U_DLY_l_3_r_:37 6.3731971e-19
C6_28 PW_U_DLY_l_1_r_:40 PW_U_DLY_l_3_r_:37 6.3731971e-19
C6_29 PW_U_DLY_l_1_r_:30 PW_U_DLY_l_3_r_:38 5.8763066e-20
C6_30 PW_U_DLY_l_1_r_:31 PW_U_DLY_l_3_r_:38 6.2466347e-20
C6_31 PW_U_DLY_l_1_r_:33 PW_U_DLY_l_3_r_:38 7.5222554e-19
C6_32 PW_U_DLY_l_1_r_:40 PW_U_DLY_l_3_r_:38 8.8364449e-17
C6_33 PW_U_DLY_l_1_r_:42 PW_U_DLY_l_3_r_:38 7.5612916e-19
C6_34 PW_U_DLY_l_1_r_:43 PW_U_DLY_l_3_r_:38 8.1377496e-21
C6_35 PW_U_DLY_l_1_r_:45 PW_U_DLY_l_3_r_:38 6.3024866e-21
C6_36 PW_U_DLY_l_1_r_:46 PW_U_DLY_l_3_r_:38 1.8826263e-18
C6_37 PW_U_DLY_l_1_r_:47 PW_U_DLY_l_3_r_:38 2.2154905e-20
C6_38 PW_U_DLY_l_1_r_:52 PW_U_DLY_l_3_r_:38 5.7906981e-21
C6_39 PW_U_DLY_l_1_r_:54 PW_U_DLY_l_3_r_:38 1.4476745e-20
C6_40 PW_U_DLY_l_1_r_:34 PW_U_DLY_l_3_r_:39 8.7919063e-19
C6_41 PW_U_DLY_l_1_r_:46 PW_U_DLY_l_3_r_:39 4.268054e-19
C6_42 PW_U_DLY_l_1_r_:40 PW_U_DLY_l_3_r_:48 6.3935954e-19
C6_43 PW_U_DLY_l_1_r_:46 PW_U_DLY_l_3_r_:48 4.5022058e-20
C6_44 PW_U_DLY_l_1_r_:46 PW_U_DLY_l_3_r_:55 3.2778735e-19
C6_45 PW_U_DLY_l_1_r_:51 PW_U_DLY_l_3_r_:55 1.2384054e-18
C6_46 PW_U_DLY_l_1_r_:58 PW_U_DLY_l_3_r_:55 1.5866798e-19
C6_47 PW_U_DLY_l_1_r_:51 PW_U_DLY_l_3_r_:57 1.6723593e-19
C6_48 PW_U_DLY_l_1_r_:58 PW_U_DLY_l_3_r_:57 1.285765e-18
C6_49 PW_U_DLY_l_1_r_:59 PW_U_DLY_l_3_r_:57 6.1935407e-21
C6_50 PW_U_DLY_l_1_r_:58 PW_U_DLY_l_3_r_:58 1.6712336e-19
C6_51 PW_U_DLY_l_1_r_:59 PW_U_DLY_l_3_r_:58 1.4853143e-23
C6_52 PW_U_DLY_l_1_r_:F1 PW_U_DLY_l_2_r_:F1 2.2588837e-17
C6_53 PW_U_DLY_l_1_r_:F1 PW_U_DLY_l_2_r_:20 8.6630047e-19
C6_54 PW_U_DLY_l_1_r_:19 PW_U_DLY_l_2_r_:23 6.1807794e-19
C6_55 PW_U_DLY_l_1_r_:F1 PW_U_DLY_l_2_r_:24 1.2152289e-21
C6_56 PW_U_DLY_l_1_r_:20 PW_U_DLY_l_2_r_:24 6.1807794e-19
C6_57 PW_U_DLY_l_1_r_:30 PW_U_DLY_l_2_r_:24 1.2152289e-21
C6_58 PW_U_DLY_l_1_r_:21 PW_U_DLY_l_2_r_:25 6.1807794e-19
C6_59 PW_U_DLY_l_1_r_:22 PW_U_DLY_l_2_r_:26 6.1807794e-19
C6_60 PW_U_DLY_l_1_r_:F1 PW_U_DLY_l_2_r_:30 1.5888307e-17
C6_61 PW_U_DLY_l_1_r_:30 PW_U_DLY_l_2_r_:30 1.4064119e-17
C6_62 PW_U_DLY_l_1_r_:F1 PW_U_DLY_l_2_r_:32 2.2524025e-18
C6_63 PW_U_DLY_l_1_r_:30 PW_U_DLY_l_2_r_:32 1.3186577e-18
C6_64 PW_U_DLY_l_1_r_:34 PW_U_DLY_l_2_r_:32 7.222722e-20
C6_65 PW_U_DLY_l_1_r_:F1 PW_U_DLY_l_2_r_:33 2.6201488e-18
C6_66 PW_U_DLY_l_1_r_:31 PW_U_DLY_l_2_r_:33 5.957349e-20
C6_67 PW_U_DLY_l_1_r_:34 PW_U_DLY_l_2_r_:33 1.9372726e-19
C6_68 PW_U_DLY_l_1_r_:F1 PW_U_DLY_l_2_r_:34 1.0443722e-18
C6_69 PW_U_DLY_l_1_r_:34 PW_U_DLY_l_2_r_:34 6.853442e-18
C6_70 PW_U_DLY_l_1_r_:41 PW_U_DLY_l_2_r_:34 2.838851e-19
C6_71 PW_U_DLY_l_1_r_:46 PW_U_DLY_l_2_r_:34 1.3175651e-19
C6_72 PW_U_DLY_l_1_r_:40 PW_U_DLY_l_2_r_:36 3.4305925e-19
C6_73 PW_U_DLY_l_1_r_:41 PW_U_DLY_l_2_r_:36 7.96823e-21
C6_74 PW_U_DLY_l_1_r_:46 PW_U_DLY_l_2_r_:36 5.814396e-20
C6_75 PW_U_DLY_l_1_r_:F1 PW_U_DLY_l_2_r_:38 6.4674796e-20
C6_76 PW_U_DLY_l_1_r_:34 PW_U_DLY_l_2_r_:38 5.1268396e-19
C6_77 PW_U_DLY_l_1_r_:40 PW_U_DLY_l_2_r_:38 1.0577896e-20
C6_78 PW_U_DLY_l_1_r_:41 PW_U_DLY_l_2_r_:38 5.3102793e-19
C6_79 PW_U_DLY_l_1_r_:F1 PW_U_DLY_l_2_r_:40 7.9664653e-19
C6_80 PW_U_DLY_l_1_r_:31 PW_U_DLY_l_2_r_:40 1.3804588e-19
C6_81 PW_U_DLY_l_1_r_:34 PW_U_DLY_l_2_r_:40 9.8439022e-19
C6_82 PW_U_DLY_l_1_r_:40 PW_U_DLY_l_2_r_:40 5.5357984e-21
C6_83 PW_U_DLY_l_1_r_:42 PW_U_DLY_l_2_r_:40 4.0695453e-19
C6_84 PW_U_DLY_l_1_r_:F1 PW_U_DLY_l_2_r_:41 4.4362022e-19
C6_85 PW_U_DLY_l_1_r_:34 PW_U_DLY_l_2_r_:41 1.7825764e-19
C6_86 PW_U_DLY_l_1_r_:42 PW_U_DLY_l_2_r_:41 3.3714929e-21
C6_87 PW_U_DLY_l_1_r_:43 PW_U_DLY_l_2_r_:41 5.5447152e-24
C6_88 PW_U_DLY_l_1_r_:45 PW_U_DLY_l_2_r_:41 5.5447152e-24
C6_89 PW_U_DLY_l_1_r_:46 PW_U_DLY_l_2_r_:41 4.1284451e-21
C6_90 PW_U_DLY_l_1_r_:47 PW_U_DLY_l_2_r_:41 5.5447152e-24
C6_91 PW_U_DLY_l_1_r_:30 PW_U_DLY_l_2_r_:42 8.581395e-19
C6_92 PW_U_DLY_l_1_r_:31 PW_U_DLY_l_2_r_:42 5.957349e-20
C6_93 PW_U_DLY_l_1_r_:40 PW_U_DLY_l_2_r_:42 1.0060058e-20
C6_94 PW_U_DLY_l_1_r_:F1 PW_U_DLY_l_2_r_:44 4.2748403e-20
C6_95 PW_U_DLY_l_1_r_:30 PW_U_DLY_l_2_r_:44 4.2748403e-20
C6_96 PW_U_DLY_l_1_r_:34 PW_U_DLY_l_2_r_:44 1.2520347e-19
C6_97 PW_U_DLY_l_1_r_:40 PW_U_DLY_l_2_r_:44 1.2520347e-19
C6_98 PW_U_DLY_l_1_r_:45 PW_U_DLY_l_2_r_:44 2.996075e-20
C6_99 PW_U_DLY_l_1_r_:F1 PW_U_DLY_l_2_r_:46 3.6684232e-20
C6_100 PW_U_DLY_l_1_r_:34 PW_U_DLY_l_2_r_:46 2.1245777e-20
C6_101 PW_U_DLY_l_1_r_:40 PW_U_DLY_l_2_r_:46 2.1245777e-20
C6_102 PW_U_DLY_l_1_r_:34 PW_U_DLY_l_2_r_:48 5.8812852e-20
C6_103 PW_U_DLY_l_1_r_:40 PW_U_DLY_l_2_r_:48 5.8812852e-20
C6_104 PW_U_DLY_l_1_r_:46 PW_U_DLY_l_2_r_:48 4.5015133e-19
C6_105 PW_U_DLY_l_1_r_:42 PW_U_DLY_l_2_r_:49 3.3714929e-21
C6_106 PW_U_DLY_l_1_r_:43 PW_U_DLY_l_2_r_:49 5.5447152e-24
C6_107 PW_U_DLY_l_1_r_:45 PW_U_DLY_l_2_r_:49 5.5447152e-24
C6_108 PW_U_DLY_l_1_r_:46 PW_U_DLY_l_2_r_:49 4.1284451e-21
C6_109 PW_U_DLY_l_1_r_:47 PW_U_DLY_l_2_r_:49 5.5447152e-24
C6_110 PW_U_DLY_l_1_r_:42 PW_U_DLY_l_2_r_:51 2.0131952e-20
C6_111 PW_U_DLY_l_1_r_:43 PW_U_DLY_l_2_r_:51 1.3495673e-19
C6_112 PW_U_DLY_l_1_r_:52 PW_U_DLY_l_2_r_:51 3.0612636e-21
C6_113 PW_U_DLY_l_1_r_:45 PW_U_DLY_l_2_r_:53 1.2030022e-19
C6_114 PW_U_DLY_l_1_r_:54 PW_U_DLY_l_2_r_:53 3.1527955e-21
C6_115 PW_U_DLY_l_1_r_:46 PW_U_DLY_l_2_r_:55 1.9199311e-20
C6_116 PW_U_DLY_l_1_r_:47 PW_U_DLY_l_2_r_:55 1.3910651e-19
C6_117 PW_U_DLY_l_1_r_:55 PW_U_DLY_l_2_r_:55 3.0906739e-21
C6_118 PW_U_DLY_l_1_r_:34 PW_U_DLY_l_2_r_:57 1.2108563e-20
C6_119 PW_U_DLY_l_1_r_:40 PW_U_DLY_l_2_r_:57 1.2108563e-20
C6_120 PW_U_DLY_l_1_r_:49 PW_U_DLY_l_2_r_:57 1.1008069e-19
C6_121 PW_U_DLY_l_1_r_:F1 PW_U_DLY_l_2_r_:58 8.9575673e-20
C6_122 PW_U_DLY_l_1_r_:34 PW_U_DLY_l_2_r_:58 1.4813819e-19
C6_123 PW_U_DLY_l_1_r_:43 PW_U_DLY_l_2_r_:66 3.260085e-19
C6_124 PW_U_DLY_l_1_r_:52 PW_U_DLY_l_2_r_:66 1.272171e-18
C6_125 PW_U_DLY_l_1_r_:45 PW_U_DLY_l_2_r_:68 3.3447886e-19
C6_126 PW_U_DLY_l_1_r_:54 PW_U_DLY_l_2_r_:68 1.272171e-18
C6_127 PW_U_DLY_l_1_r_:47 PW_U_DLY_l_2_r_:70 3.2663824e-19
C6_128 PW_U_DLY_l_1_r_:55 PW_U_DLY_l_2_r_:70 1.272171e-18
C6_129 PW_U_DLY_l_1_r_:41 PW_U_DLY_l_2_r_:72 1.7175803e-19
C6_130 PW_U_DLY_l_1_r_:66 PW_U_DLY_l_2_r_:72 8.2064883e-19
Cg6_131 PW_U_DLY_l_1_r_:F1 COUPLING_GND 3.3348154e-17
Cg6_132 PW_U_DLY_l_1_r_:F2 COUPLING_GND 1.8509357e-17
Cg6_133 PW_U_DLY_l_1_r_:F3 COUPLING_GND 1.8832348e-17
Cg6_134 PW_U_DLY_l_1_r_:F6 COUPLING_GND 1.8509357e-17
Cg6_135 PW_U_DLY_l_1_r_:F7 COUPLING_GND 1.8748798e-17
Cg6_136 PW_U_DLY_l_1_r_:F10 COUPLING_GND 1.8509357e-17