.subckt dut_model in out

Rd0 in x1 18.3
Cd0 x1 0 0.125p
Ld0 x1 out 0.6n

CL999 out 0 0.125p

.ends                            
