.subckt dut_model x0 x19

Rd0 x0 x1 1.83
Cd0 x1 0 1.25e-14
Ld0 x1 x2 6e-11
Rd2 x2 x3 1.83
Cd2 x3 0 1.25e-14
Ld2 x3 x4 6e-11
Rd4 x4 x5 1.83
Cd4 x5 0 1.25e-14
Ld4 x5 x6 6e-11
Rd6 x6 x7 1.83
Cd6 x7 0 1.25e-14
Ld6 x7 x8 6e-11
Rd8 x8 x9 1.83
Cd8 x9 0 1.25e-14
Ld8 x9 x10 6e-11
Rd10 x10 x11 1.83
Cd10 x11 0 1.25e-14
Ld10 x11 x12 6e-11
Rd12 x12 x13 1.83
Cd12 x13 0 1.25e-14
Ld12 x13 x14 6e-11
Rd14 x14 x15 1.83
Cd14 x15 0 1.25e-14
Ld14 x15 x16 6e-11
Rd16 x16 x17 1.83
Cd16 x17 0 1.25e-14
Ld16 x17 x18 6e-11
Rd18 x18 x19 1.83
Cd18 x19 0 1.25e-14
Ld18 x19 x20 6e-11

.ends
